9911830
  -OEChem-11282412102D

 51 54  0     0  0  0  0  0  0999 V2000
    7.1777    3.5272    0.0000 Cl  0  0  0  0  0  0  0  0  0  0  0  0
    5.4804    0.5074    0.0000 O   0  0  0  0  0  0  0  0  0  0  0  0
    2.0000   -0.5272    0.0000 O   0  0  0  0  0  0  0  0  0  0  0  0
    2.0000   -2.5272    0.0000 O   0  0  0  0  0  0  0  0  0  0  0  0
   13.1113    1.7593    0.0000 O   0  0  0  0  0  0  0  0  0  0  0  0
    9.8045    1.0574    0.0000 O   0  0  0  0  0  0  0  0  0  0  0  0
    5.4920   -2.5619    0.0000 N   0  0  0  0  0  0  0  0  0  0  0  0
    8.9212    2.5473    0.0000 N   0  0  0  0  0  0  0  0  0  0  0  0
   10.6531    2.5673    0.0000 N   0  0  0  0  0  0  0  0  0  0  0  0
   12.4337    2.4946    0.0000 N   0  0  0  0  0  0  0  0  0  0  0  0
    4.5981   -1.0272    0.0000 C   0  0  0  0  0  0  0  0  0  0  0  0
    4.5981   -2.0272    0.0000 C   0  0  0  0  0  0  0  0  0  0  0  0
    5.4920   -0.4926    0.0000 C   0  0  0  0  0  0  0  0  0  0  0  0
    3.7320   -0.5272    0.0000 C   0  0  0  0  0  0  0  0  0  0  0  0
    2.8660   -1.0272    0.0000 C   0  0  0  0  0  0  0  0  0  0  0  0
    3.7320   -2.5272    0.0000 C   0  0  0  0  0  0  0  0  0  0  0  0
    2.8660   -2.0272    0.0000 C   0  0  0  0  0  0  0  0  0  0  0  0
    6.3981   -1.0064    0.0000 C   0  0  0  0  0  0  0  0  0  0  0  0
    6.3406    1.0174    0.0000 C   0  0  0  0  0  0  0  0  0  0  0  0
    6.3981   -2.0480    0.0000 C   0  0  0  0  0  0  0  0  0  0  0  0
    8.0610    2.0373    0.0000 C   0  0  0  0  0  0  0  0  0  0  0  0
    6.3291    2.0173    0.0000 C   0  0  0  0  0  0  0  0  0  0  0  0
    7.2124    0.5274    0.0000 C   0  0  0  0  0  0  0  0  0  0  0  0
    7.1893    2.5273    0.0000 C   0  0  0  0  0  0  0  0  0  0  0  0
    8.0726    1.0374    0.0000 C   0  0  0  0  0  0  0  0  0  0  0  0
    9.7930    2.0574    0.0000 C   0  0  0  0  0  0  0  0  0  0  0  0
    2.0000    0.4728    0.0000 C   0  0  0  0  0  0  0  0  0  0  0  0
   11.5249    2.0774    0.0000 C   0  0  0  0  0  0  0  0  0  0  0  0
    2.0000   -3.5272    0.0000 C   0  0  0  0  0  0  0  0  0  0  0  0
   11.6409    1.0841    0.0000 C   0  0  0  0  0  0  0  0  0  0  0  0
   12.6214    0.8875    0.0000 C   0  0  0  0  0  0  0  0  0  0  0  0
   13.0387   -0.0212    0.0000 C   0  0  0  0  0  0  0  0  0  0  0  0
    3.7320    0.0928    0.0000 H   0  0  0  0  0  0  0  0  0  0  0  0
    3.7320   -3.1472    0.0000 H   0  0  0  0  0  0  0  0  0  0  0  0
    6.9338   -0.6943    0.0000 H   0  0  0  0  0  0  0  0  0  0  0  0
    6.9338   -2.3601    0.0000 H   0  0  0  0  0  0  0  0  0  0  0  0
    5.7886    2.3211    0.0000 H   0  0  0  0  0  0  0  0  0  0  0  0
    7.2196   -0.0925    0.0000 H   0  0  0  0  0  0  0  0  0  0  0  0
    8.6131    0.7336    0.0000 H   0  0  0  0  0  0  0  0  0  0  0  0
    8.9140    3.1673    0.0000 H   0  0  0  0  0  0  0  0  0  0  0  0
   10.6460    3.1873    0.0000 H   0  0  0  0  0  0  0  0  0  0  0  0
    2.6200    0.4728    0.0000 H   0  0  0  0  0  0  0  0  0  0  0  0
    2.0000    1.0928    0.0000 H   0  0  0  0  0  0  0  0  0  0  0  0
    1.3800    0.4728    0.0000 H   0  0  0  0  0  0  0  0  0  0  0  0
    1.3800   -3.5272    0.0000 H   0  0  0  0  0  0  0  0  0  0  0  0
    2.0000   -4.1472    0.0000 H   0  0  0  0  0  0  0  0  0  0  0  0
    2.6200   -3.5272    0.0000 H   0  0  0  0  0  0  0  0  0  0  0  0
   11.1850    0.6640    0.0000 H   0  0  0  0  0  0  0  0  0  0  0  0
   12.4752   -0.2799    0.0000 H   0  0  0  0  0  0  0  0  0  0  0  0
   13.2974   -0.5847    0.0000 H   0  0  0  0  0  0  0  0  0  0  0  0
   13.6021    0.2375    0.0000 H   0  0  0  0  0  0  0  0  0  0  0  0
  1 24  1  0  0  0  0
  2 13  1  0  0  0  0
  2 19  1  0  0  0  0
  3 15  1  0  0  0  0
  3 27  1  0  0  0  0
  4 17  1  0  0  0  0
  4 29  1  0  0  0  0
  5 10  1  0  0  0  0
  5 31  1  0  0  0  0
  6 26  2  0  0  0  0
  7 12  2  0  0  0  0
  7 20  1  0  0  0  0
  8 21  1  0  0  0  0
  8 26  1  0  0  0  0
  8 40  1  0  0  0  0
  9 26  1  0  0  0  0
  9 28  1  0  0  0  0
  9 41  1  0  0  0  0
 10 28  2  0  0  0  0
 11 12  1  0  0  0  0
 11 13  2  0  0  0  0
 11 14  1  0  0  0  0
 12 16  1  0  0  0  0
 13 18  1  0  0  0  0
 14 15  2  0  0  0  0
 14 33  1  0  0  0  0
 15 17  1  0  0  0  0
 16 17  2  0  0  0  0
 16 34  1  0  0  0  0
 18 20  2  0  0  0  0
 18 35  1  0  0  0  0
 19 22  2  0  0  0  0
 19 23  1  0  0  0  0
 20 36  1  0  0  0  0
 21 24  2  0  0  0  0
 21 25  1  0  0  0  0
 22 24  1  0  0  0  0
 22 37  1  0  0  0  0
 23 25  2  0  0  0  0
 23 38  1  0  0  0  0
 25 39  1  0  0  0  0
 27 42  1  0  0  0  0
 27 43  1  0  0  0  0
 27 44  1  0  0  0  0
 28 30  1  0  0  0  0
 29 45  1  0  0  0  0
 29 46  1  0  0  0  0
 29 47  1  0  0  0  0
 30 31  2  0  0  0  0
 30 48  1  0  0  0  0
 31 32  1  0  0  0  0
 32 49  1  0  0  0  0
 32 50  1  0  0  0  0
 32 51  1  0  0  0  0
M  END
> <PUBCHEM_COMPOUND_CID>
9911830

> <PUBCHEM_COMPOUND_CANONICALIZED>
1

> <PUBCHEM_CACTVS_COMPLEXITY>
631

> <PUBCHEM_CACTVS_HBOND_ACCEPTOR>
7

> <PUBCHEM_CACTVS_HBOND_DONOR>
2

> <PUBCHEM_CACTVS_ROTATABLE_BOND>
6

> <PUBCHEM_CACTVS_SUBSKEYS>
AAADceB7uAAEAAAAAAAAAAAAAAAAAWAAAAA8YIAAAAAAAACx/AAAHgIUAAAADA7BniY/9vLYFACpA7Z3dgCCiCA1JyAp2CE+7tqNJurFs5vGOKru1RvK6Gfw8L8OIEABAwACQBBAgAIGAASAIAAAAAAAAA==

> <PUBCHEM_IUPAC_OPENEYE_NAME>
1-[2-chloro-4-[(6,7-dimethoxy-4-quinolyl)oxy]phenyl]-3-(5-methylisoxazol-3-yl)urea

> <PUBCHEM_IUPAC_CAS_NAME>
1-[2-chloro-4-[(6,7-dimethoxy-4-quinolinyl)oxy]phenyl]-3-(5-methyl-3-isoxazolyl)urea

> <PUBCHEM_IUPAC_NAME_MARKUP>
1-[2-chloro-4-(6,7-dimethoxyquinolin-4-yl)oxyphenyl]-3-(5-methyl-1,2-oxazol-3-yl)urea

> <PUBCHEM_IUPAC_NAME>
1-[2-chloro-4-(6,7-dimethoxyquinolin-4-yl)oxyphenyl]-3-(5-methyl-1,2-oxazol-3-yl)urea

> <PUBCHEM_IUPAC_SYSTEMATIC_NAME>
1-[2-chloranyl-4-(6,7-dimethoxyquinolin-4-yl)oxy-phenyl]-3-(5-methyl-1,2-oxazol-3-yl)urea

> <PUBCHEM_IUPAC_TRADITIONAL_NAME>
1-[2-chloro-4-[(6,7-dimethoxy-4-quinolyl)oxy]phenyl]-3-(5-methylisoxazol-3-yl)urea

> <PUBCHEM_IUPAC_INCHI>
InChI=1S/C22H19ClN4O5/c1-12-8-21(27-32-12)26-22(28)25-16-5-4-13(9-15(16)23)31-18-6-7-24-17-11-20(30-3)19(29-2)10-14(17)18/h4-11H,1-3H3,(H2,25,26,27,28)

> <PUBCHEM_IUPAC_INCHIKEY>
SPMVMDHWKHCIDT-UHFFFAOYSA-N

> <PUBCHEM_XLOGP3_AA>
4

> <PUBCHEM_EXACT_MASS>
454.1043974

> <PUBCHEM_MOLECULAR_FORMULA>
C22H19ClN4O5

> <PUBCHEM_MOLECULAR_WEIGHT>
454.9

> <PUBCHEM_OPENEYE_CAN_SMILES>
CC1=CC(=NO1)NC(=O)NC2=C(C=C(C=C2)OC3=C4C=C(C(=CC4=NC=C3)OC)OC)Cl

> <PUBCHEM_OPENEYE_ISO_SMILES>
CC1=CC(=NO1)NC(=O)NC2=C(C=C(C=C2)OC3=C4C=C(C(=CC4=NC=C3)OC)OC)Cl

> <PUBCHEM_CACTVS_TPSA>
108

> <PUBCHEM_MONOISOTOPIC_WEIGHT>
454.1043974

> <PUBCHEM_TOTAL_CHARGE>
0

> <PUBCHEM_HEAVY_ATOM_COUNT>
32

> <PUBCHEM_ATOM_DEF_STEREO_COUNT>
0

> <PUBCHEM_ATOM_UDEF_STEREO_COUNT>
0

> <PUBCHEM_BOND_DEF_STEREO_COUNT>
0

> <PUBCHEM_BOND_UDEF_STEREO_COUNT>
0

> <PUBCHEM_ISOTOPIC_ATOM_COUNT>
0

> <PUBCHEM_COMPONENT_COUNT>
1

> <PUBCHEM_CACTVS_TAUTO_COUNT>
-1

> <PUBCHEM_COORDINATE_TYPE>
1
5
255

> <PUBCHEM_BONDANNOTATIONS>
10  28  8
11  12  8
11  13  8
11  14  8
12  16  8
13  18  8
14  15  8
15  17  8
16  17  8
18  20  8
19  22  8
19  23  8
21  24  8
21  25  8
22  24  8
23  25  8
28  30  8
30  31  8
5  10  8
5  31  8
7  12  8
7  20  8

$$$$
10433653
  -OEChem-11282412102D

 61 65  0     0  0  0  0  0  0999 V2000
    9.4707    3.2695    0.0000 F   0  0  0  0  0  0  0  0  0  0  0  0
   11.4580   -1.8754    0.0000 O   0  0  0  0  0  0  0  0  0  0  0  0
    3.7320   -2.3754    0.0000 N   0  0  0  0  0  0  0  0  0  0  0  0
    6.3301   -0.8754    0.0000 N   0  0  0  0  0  0  0  0  0  0  0  0
    9.8744   -2.6801    0.0000 N   0  0  0  0  0  0  0  0  0  0  0  0
   11.5719    0.9989    0.0000 N   0  0  0  0  0  0  0  0  0  0  0  0
   11.9056   -0.5844    0.0000 N   0  0  0  0  0  0  0  0  0  0  0  0
    5.4641   -1.3754    0.0000 C   0  0  0  0  0  0  0  0  0  0  0  0
    4.5981   -0.8754    0.0000 C   0  0  0  0  0  0  0  0  0  0  0  0
    5.4641   -2.3754    0.0000 C   0  0  0  0  0  0  0  0  0  0  0  0
    3.7320   -1.3754    0.0000 C   0  0  0  0  0  0  0  0  0  0  0  0
    4.5981   -2.8754    0.0000 C   0  0  0  0  0  0  0  0  0  0  0  0
    2.8660   -2.8754    0.0000 C   0  0  0  0  0  0  0  0  0  0  0  0
    7.1962   -1.3754    0.0000 C   0  0  0  0  0  0  0  0  0  0  0  0
    2.0000   -2.3754    0.0000 C   0  0  0  0  0  0  0  0  0  0  0  0
    8.0622   -0.8754    0.0000 C   0  0  0  0  0  0  0  0  0  0  0  0
    8.9282   -1.3754    0.0000 C   0  0  0  0  0  0  0  0  0  0  0  0
    7.1962   -2.3754    0.0000 C   0  0  0  0  0  0  0  0  0  0  0  0
    8.9282   -2.3754    0.0000 C   0  0  0  0  0  0  0  0  0  0  0  0
    9.8744   -1.0707    0.0000 C   0  0  0  0  0  0  0  0  0  0  0  0
    8.0622   -2.8754    0.0000 C   0  0  0  0  0  0  0  0  0  0  0  0
   10.4580   -1.8754    0.0000 C   0  0  0  0  0  0  0  0  0  0  0  0
   10.1851   -0.1202    0.0000 C   0  0  0  0  0  0  0  0  0  0  0  0
   11.1636    0.0861    0.0000 C   0  0  0  0  0  0  0  0  0  0  0  0
    9.5172    0.6241    0.0000 C   0  0  0  0  0  0  0  0  0  0  0  0
    9.8279    1.5747    0.0000 C   0  0  0  0  0  0  0  0  0  0  0  0
    8.5387    0.4179    0.0000 C   0  0  0  0  0  0  0  0  0  0  0  0
   12.5662    0.8926    0.0000 C   0  0  0  0  0  0  0  0  0  0  0  0
   12.7725   -0.0859    0.0000 C   0  0  0  0  0  0  0  0  0  0  0  0
    9.1601    2.3190    0.0000 C   0  0  0  0  0  0  0  0  0  0  0  0
    7.8709    1.1622    0.0000 C   0  0  0  0  0  0  0  0  0  0  0  0
   13.2367    1.6346    0.0000 C   0  0  0  0  0  0  0  0  0  0  0  0
    8.1816    2.1127    0.0000 C   0  0  0  0  0  0  0  0  0  0  0  0
    5.4641   -0.7554    0.0000 H   0  0  0  0  0  0  0  0  0  0  0  0
    4.9966   -0.4005    0.0000 H   0  0  0  0  0  0  0  0  0  0  0  0
    4.1996   -0.4005    0.0000 H   0  0  0  0  0  0  0  0  0  0  0  0
    5.6762   -2.9580    0.0000 H   0  0  0  0  0  0  0  0  0  0  0  0
    6.0747   -2.2678    0.0000 H   0  0  0  0  0  0  0  0  0  0  0  0
    3.5200   -0.7928    0.0000 H   0  0  0  0  0  0  0  0  0  0  0  0
    3.1215   -1.4831    0.0000 H   0  0  0  0  0  0  0  0  0  0  0  0
    4.1996   -3.3504    0.0000 H   0  0  0  0  0  0  0  0  0  0  0  0
    4.9966   -3.3504    0.0000 H   0  0  0  0  0  0  0  0  0  0  0  0
    6.3301   -0.2554    0.0000 H   0  0  0  0  0  0  0  0  0  0  0  0
    2.4675   -3.3504    0.0000 H   0  0  0  0  0  0  0  0  0  0  0  0
    3.2646   -3.3504    0.0000 H   0  0  0  0  0  0  0  0  0  0  0  0
    2.3100   -1.8385    0.0000 H   0  0  0  0  0  0  0  0  0  0  0  0
    1.4631   -2.0654    0.0000 H   0  0  0  0  0  0  0  0  0  0  0  0
    1.6900   -2.9124    0.0000 H   0  0  0  0  0  0  0  0  0  0  0  0
    8.0622   -0.2554    0.0000 H   0  0  0  0  0  0  0  0  0  0  0  0
    6.6592   -2.6854    0.0000 H   0  0  0  0  0  0  0  0  0  0  0  0
    8.0622   -3.4954    0.0000 H   0  0  0  0  0  0  0  0  0  0  0  0
   10.0670   -3.2695    0.0000 H   0  0  0  0  0  0  0  0  0  0  0  0
   11.2628    1.5364    0.0000 H   0  0  0  0  0  0  0  0  0  0  0  0
   10.4346    1.7025    0.0000 H   0  0  0  0  0  0  0  0  0  0  0  0
    8.3461   -0.1714    0.0000 H   0  0  0  0  0  0  0  0  0  0  0  0
   13.3384   -0.3390    0.0000 H   0  0  0  0  0  0  0  0  0  0  0  0
    7.2642    1.0344    0.0000 H   0  0  0  0  0  0  0  0  0  0  0  0
   13.6967    1.2190    0.0000 H   0  0  0  0  0  0  0  0  0  0  0  0
   13.6523    2.0947    0.0000 H   0  0  0  0  0  0  0  0  0  0  0  0
   12.7766    2.0503    0.0000 H   0  0  0  0  0  0  0  0  0  0  0  0
    7.7675    2.5742    0.0000 H   0  0  0  0  0  0  0  0  0  0  0  0
  1 30  1  0  0  0  0
  2 22  2  0  0  0  0
  3 11  1  0  0  0  0
  3 12  1  0  0  0  0
  3 13  1  0  0  0  0
  4  8  1  0  0  0  0
  4 14  1  0  0  0  0
  4 43  1  0  0  0  0
  5 19  1  0  0  0  0
  5 22  1  0  0  0  0
  5 52  1  0  0  0  0
  6 24  1  0  0  0  0
  6 28  1  0  0  0  0
  6 53  1  0  0  0  0
  7 24  2  0  0  0  0
  7 29  1  0  0  0  0
  8  9  1  0  0  0  0
  8 10  1  0  0  0  0
  8 34  1  0  0  0  0
  9 11  1  0  0  0  0
  9 35  1  0  0  0  0
  9 36  1  0  0  0  0
 10 12  1  0  0  0  0
 10 37  1  0  0  0  0
 10 38  1  0  0  0  0
 11 39  1  0  0  0  0
 11 40  1  0  0  0  0
 12 41  1  0  0  0  0
 12 42  1  0  0  0  0
 13 15  1  0  0  0  0
 13 44  1  0  0  0  0
 13 45  1  0  0  0  0
 14 16  2  0  0  0  0
 14 18  1  0  0  0  0
 15 46  1  0  0  0  0
 15 47  1  0  0  0  0
 15 48  1  0  0  0  0
 16 17  1  0  0  0  0
 16 49  1  0  0  0  0
 17 19  2  0  0  0  0
 17 20  1  0  0  0  0
 18 21  2  0  0  0  0
 18 50  1  0  0  0  0
 19 21  1  0  0  0  0
 20 22  1  0  0  0  0
 20 23  2  0  0  0  0
 21 51  1  0  0  0  0
 23 24  1  0  0  0  0
 23 25  1  0  0  0  0
 25 26  2  0  0  0  0
 25 27  1  0  0  0  0
 26 30  1  0  0  0  0
 26 54  1  0  0  0  0
 27 31  2  0  0  0  0
 27 55  1  0  0  0  0
 28 29  2  0  0  0  0
 28 32  1  0  0  0  0
 29 56  1  0  0  0  0
 30 33  2  0  0  0  0
 31 33  1  0  0  0  0
 31 57  1  0  0  0  0
 32 58  1  0  0  0  0
 32 59  1  0  0  0  0
 32 60  1  0  0  0  0
 33 61  1  0  0  0  0
M  END
> <PUBCHEM_COMPOUND_CID>
10433653

> <PUBCHEM_COMPOUND_CANONICALIZED>
1

> <PUBCHEM_CACTVS_COMPLEXITY>
736

> <PUBCHEM_CACTVS_HBOND_ACCEPTOR>
5

> <PUBCHEM_CACTVS_HBOND_DONOR>
3

> <PUBCHEM_CACTVS_ROTATABLE_BOND>
5

> <PUBCHEM_CACTVS_SUBSKEYS>
AAADceB7oQAAAAAAAAAAAAAAAAAAAWLAAAA8YIAAAAAAAFgB0AAAHwAQAAAADCjBnww/0JfJkACoAzd3dACCgC2xEqAJ2YE4dNiIaDLA3ZGUIAholALIyScciYCeAACAQAACAAAAAQCAAAQAAAAAAAAAAA==

> <PUBCHEM_IUPAC_OPENEYE_NAME>
(3Z)-5-[(1-ethyl-4-piperidyl)amino]-3-[(3-fluorophenyl)-(5-methyl-1H-imidazol-2-yl)methylene]indolin-2-one

> <PUBCHEM_IUPAC_CAS_NAME>
(3Z)-5-[(1-ethyl-4-piperidinyl)amino]-3-[(3-fluorophenyl)-(5-methyl-1H-imidazol-2-yl)methylidene]-1H-indol-2-one

> <PUBCHEM_IUPAC_NAME_MARKUP>
(3<I>Z</I>)-5-[(1-ethylpiperidin-4-yl)amino]-3-[(3-fluorophenyl)-(5-methyl-1<I>H</I>-imidazol-2-yl)methylidene]-1<I>H</I>-indol-2-one

> <PUBCHEM_IUPAC_NAME>
(3Z)-5-[(1-ethylpiperidin-4-yl)amino]-3-[(3-fluorophenyl)-(5-methyl-1H-imidazol-2-yl)methylidene]-1H-indol-2-one

> <PUBCHEM_IUPAC_SYSTEMATIC_NAME>
(3Z)-5-[(1-ethylpiperidin-4-yl)amino]-3-[(3-fluorophenyl)-(5-methyl-1H-imidazol-2-yl)methylidene]-1H-indol-2-one

> <PUBCHEM_IUPAC_TRADITIONAL_NAME>
(3Z)-5-[(1-ethyl-4-piperidyl)amino]-3-[(3-fluorophenyl)-(5-methyl-1H-imidazol-2-yl)methylene]oxindole

> <PUBCHEM_IUPAC_INCHI>
InChI=1S/C26H28FN5O/c1-3-32-11-9-19(10-12-32)30-20-7-8-22-21(14-20)24(26(33)31-22)23(25-28-15-16(2)29-25)17-5-4-6-18(27)13-17/h4-8,13-15,19,30H,3,9-12H2,1-2H3,(H,28,29)(H,31,33)/b24-23-

> <PUBCHEM_IUPAC_INCHIKEY>
DMQYDVBIPXAAJA-VHXPQNKSSA-N

> <PUBCHEM_XLOGP3_AA>
4.4

> <PUBCHEM_EXACT_MASS>
445.22778870

> <PUBCHEM_MOLECULAR_FORMULA>
C26H28FN5O

> <PUBCHEM_MOLECULAR_WEIGHT>
445.5

> <PUBCHEM_OPENEYE_CAN_SMILES>
CCN1CCC(CC1)NC2=CC3=C(C=C2)NC(=O)C3=C(C4=CC(=CC=C4)F)C5=NC=C(N5)C

> <PUBCHEM_OPENEYE_ISO_SMILES>
CCN1CCC(CC1)NC2=CC\3=C(C=C2)NC(=O)/C3=C(/C4=CC(=CC=C4)F)\C5=NC=C(N5)C

> <PUBCHEM_CACTVS_TPSA>
73

> <PUBCHEM_MONOISOTOPIC_WEIGHT>
445.22778870

> <PUBCHEM_TOTAL_CHARGE>
0

> <PUBCHEM_HEAVY_ATOM_COUNT>
33

> <PUBCHEM_ATOM_DEF_STEREO_COUNT>
0

> <PUBCHEM_ATOM_UDEF_STEREO_COUNT>
0

> <PUBCHEM_BOND_DEF_STEREO_COUNT>
1

> <PUBCHEM_BOND_UDEF_STEREO_COUNT>
0

> <PUBCHEM_ISOTOPIC_ATOM_COUNT>
0

> <PUBCHEM_COMPONENT_COUNT>
1

> <PUBCHEM_CACTVS_TAUTO_COUNT>
-1

> <PUBCHEM_COORDINATE_TYPE>
1
5
255

> <PUBCHEM_BONDANNOTATIONS>
14  16  8
14  18  8
16  17  8
17  19  8
18  21  8
19  21  8
25  26  8
25  27  8
26  30  8
27  31  8
28  29  8
30  33  8
31  33  8
6  24  8
6  28  8
7  24  8
7  29  8

$$$$
5329099
  -OEChem-11282412102D

 41 43  0     0  0  0  0  0  0999 V2000
    6.2619   -1.8000    0.0000 O   0  0  0  0  0  0  0  0  0  0  0  0
   10.6665    2.0328    0.0000 O   0  0  0  0  0  0  0  0  0  0  0  0
    9.3813    3.1940    0.0000 O   0  0  0  0  0  0  0  0  0  0  0  0
    6.7094   -0.5089    0.0000 N   0  0  0  0  0  0  0  0  0  0  0  0
    4.6783   -2.6047    0.0000 N   0  0  0  0  0  0  0  0  0  0  0  0
    7.3701    0.9681    0.0000 C   0  0  0  0  0  0  0  0  0  0  0  0
    6.3758    1.0743    0.0000 C   0  0  0  0  0  0  0  0  0  0  0  0
    5.9674    0.1615    0.0000 C   0  0  0  0  0  0  0  0  0  0  0  0
    7.5763   -0.0104    0.0000 C   0  0  0  0  0  0  0  0  0  0  0  0
    8.0405    1.7101    0.0000 C   0  0  0  0  0  0  0  0  0  0  0  0
    4.9889   -0.0447    0.0000 C   0  0  0  0  0  0  0  0  0  0  0  0
    4.6783   -0.9952    0.0000 C   0  0  0  0  0  0  0  0  0  0  0  0
    9.0183    1.5005    0.0000 C   0  0  0  0  0  0  0  0  0  0  0  0
    5.8772    1.9412    0.0000 C   0  0  0  0  0  0  0  0  0  0  0  0
    3.7320   -1.3000    0.0000 C   0  0  0  0  0  0  0  0  0  0  0  0
    8.4892   -0.4187    0.0000 C   0  0  0  0  0  0  0  0  0  0  0  0
    3.7320   -2.3000    0.0000 C   0  0  0  0  0  0  0  0  0  0  0  0
    5.2619   -1.8000    0.0000 C   0  0  0  0  0  0  0  0  0  0  0  0
    2.8660   -0.8000    0.0000 C   0  0  0  0  0  0  0  0  0  0  0  0
    2.8660   -2.8000    0.0000 C   0  0  0  0  0  0  0  0  0  0  0  0
    9.6887    2.2424    0.0000 C   0  0  0  0  0  0  0  0  0  0  0  0
    2.0000   -1.3000    0.0000 C   0  0  0  0  0  0  0  0  0  0  0  0
    2.0000   -2.3000    0.0000 C   0  0  0  0  0  0  0  0  0  0  0  0
    8.2738    2.2845    0.0000 H   0  0  0  0  0  0  0  0  0  0  0  0
    7.5153    2.0395    0.0000 H   0  0  0  0  0  0  0  0  0  0  0  0
    6.6436   -1.1254    0.0000 H   0  0  0  0  0  0  0  0  0  0  0  0
    4.5749    0.4167    0.0000 H   0  0  0  0  0  0  0  0  0  0  0  0
    8.7850    0.9260    0.0000 H   0  0  0  0  0  0  0  0  0  0  0  0
    9.5435    1.1710    0.0000 H   0  0  0  0  0  0  0  0  0  0  0  0
    6.4147    2.2503    0.0000 H   0  0  0  0  0  0  0  0  0  0  0  0
    5.5682    2.4787    0.0000 H   0  0  0  0  0  0  0  0  0  0  0  0
    5.3398    1.6322    0.0000 H   0  0  0  0  0  0  0  0  0  0  0  0
    8.2360   -0.9847    0.0000 H   0  0  0  0  0  0  0  0  0  0  0  0
    9.0551   -0.6719    0.0000 H   0  0  0  0  0  0  0  0  0  0  0  0
    8.7423    0.1472    0.0000 H   0  0  0  0  0  0  0  0  0  0  0  0
    4.8709   -3.1940    0.0000 H   0  0  0  0  0  0  0  0  0  0  0  0
    2.8660   -0.1800    0.0000 H   0  0  0  0  0  0  0  0  0  0  0  0
    2.8660   -3.4200    0.0000 H   0  0  0  0  0  0  0  0  0  0  0  0
    1.4631   -0.9900    0.0000 H   0  0  0  0  0  0  0  0  0  0  0  0
    1.4631   -2.6100    0.0000 H   0  0  0  0  0  0  0  0  0  0  0  0
   11.0822    2.4929    0.0000 H   0  0  0  0  0  0  0  0  0  0  0  0
  1 18  2  0  0  0  0
  2 21  1  0  0  0  0
  2 41  1  0  0  0  0
  3 21  2  0  0  0  0
  4  8  1  0  0  0  0
  4  9  1  0  0  0  0
  4 26  1  0  0  0  0
  5 17  1  0  0  0  0
  5 18  1  0  0  0  0
  5 36  1  0  0  0  0
  6  7  1  0  0  0  0
  6  9  2  0  0  0  0
  6 10  1  0  0  0  0
  7  8  2  0  0  0  0
  7 14  1  0  0  0  0
  8 11  1  0  0  0  0
  9 16  1  0  0  0  0
 10 13  1  0  0  0  0
 10 24  1  0  0  0  0
 10 25  1  0  0  0  0
 11 12  2  0  0  0  0
 11 27  1  0  0  0  0
 12 15  1  0  0  0  0
 12 18  1  0  0  0  0
 13 21  1  0  0  0  0
 13 28  1  0  0  0  0
 13 29  1  0  0  0  0
 14 30  1  0  0  0  0
 14 31  1  0  0  0  0
 14 32  1  0  0  0  0
 15 17  1  0  0  0  0
 15 19  2  0  0  0  0
 16 33  1  0  0  0  0
 16 34  1  0  0  0  0
 16 35  1  0  0  0  0
 17 20  2  0  0  0  0
 19 22  1  0  0  0  0
 19 37  1  0  0  0  0
 20 23  1  0  0  0  0
 20 38  1  0  0  0  0
 22 23  2  0  0  0  0
 22 39  1  0  0  0  0
 23 40  1  0  0  0  0
M  END
> <PUBCHEM_COMPOUND_CID>
5329099

> <PUBCHEM_COMPOUND_CANONICALIZED>
1

> <PUBCHEM_CACTVS_COMPLEXITY>
516

> <PUBCHEM_CACTVS_HBOND_ACCEPTOR>
3

> <PUBCHEM_CACTVS_HBOND_DONOR>
3

> <PUBCHEM_CACTVS_ROTATABLE_BOND>
4

> <PUBCHEM_CACTVS_SUBSKEYS>
AAADceB7MAAAAAAAAAAAAAAAAAAAAWLAAAAwAAAAAAAAAFgBwAAAHgAQCAAADAiBngAyyJLJkgCoAyXyXACCgCAhAiAImSEwZNgIIHLAlZGEYAhklADIyYec2bOegAAAAAACAAAAAAAAAAQAAAAAAAAAAA==

> <PUBCHEM_IUPAC_OPENEYE_NAME>
3-[2,4-dimethyl-5-[(Z)-(2-oxoindolin-3-ylidene)methyl]-1H-pyrrol-3-yl]propanoic acid

> <PUBCHEM_IUPAC_CAS_NAME>
3-[2,4-dimethyl-5-[(Z)-(2-oxo-1H-indol-3-ylidene)methyl]-1H-pyrrol-3-yl]propanoic acid

> <PUBCHEM_IUPAC_NAME_MARKUP>
3-[2,4-dimethyl-5-[(<I>Z</I>)-(2-oxo-1<I>H</I>-indol-3-ylidene)methyl]-1<I>H</I>-pyrrol-3-yl]propanoic acid

> <PUBCHEM_IUPAC_NAME>
3-[2,4-dimethyl-5-[(Z)-(2-oxo-1H-indol-3-ylidene)methyl]-1H-pyrrol-3-yl]propanoic acid

> <PUBCHEM_IUPAC_SYSTEMATIC_NAME>
3-[2,4-dimethyl-5-[(Z)-(2-oxidanylidene-1H-indol-3-ylidene)methyl]-1H-pyrrol-3-yl]propanoic acid

> <PUBCHEM_IUPAC_TRADITIONAL_NAME>
3-[5-[(Z)-(2-ketoindolin-3-ylidene)methyl]-2,4-dimethyl-1H-pyrrol-3-yl]propionic acid

> <PUBCHEM_IUPAC_INCHI>
InChI=1S/C18H18N2O3/c1-10-12(7-8-17(21)22)11(2)19-16(10)9-14-13-5-3-4-6-15(13)20-18(14)23/h3-6,9,19H,7-8H2,1-2H3,(H,20,23)(H,21,22)/b14-9-

> <PUBCHEM_IUPAC_INCHIKEY>
NHFDRBXTEDBWCZ-ZROIWOOFSA-N

> <PUBCHEM_XLOGP3_AA>
2.2

> <PUBCHEM_EXACT_MASS>
310.13174244

> <PUBCHEM_MOLECULAR_FORMULA>
C18H18N2O3

> <PUBCHEM_MOLECULAR_WEIGHT>
310.3

> <PUBCHEM_OPENEYE_CAN_SMILES>
CC1=C(NC(=C1CCC(=O)O)C)C=C2C3=CC=CC=C3NC2=O

> <PUBCHEM_OPENEYE_ISO_SMILES>
CC1=C(NC(=C1CCC(=O)O)C)/C=C\2/C3=CC=CC=C3NC2=O

> <PUBCHEM_CACTVS_TPSA>
82.2

> <PUBCHEM_MONOISOTOPIC_WEIGHT>
310.13174244

> <PUBCHEM_TOTAL_CHARGE>
0

> <PUBCHEM_HEAVY_ATOM_COUNT>
23

> <PUBCHEM_ATOM_DEF_STEREO_COUNT>
0

> <PUBCHEM_ATOM_UDEF_STEREO_COUNT>
0

> <PUBCHEM_BOND_DEF_STEREO_COUNT>
1

> <PUBCHEM_BOND_UDEF_STEREO_COUNT>
0

> <PUBCHEM_ISOTOPIC_ATOM_COUNT>
0

> <PUBCHEM_COMPONENT_COUNT>
1

> <PUBCHEM_CACTVS_TAUTO_COUNT>
-1

> <PUBCHEM_COORDINATE_TYPE>
1
5
255

> <PUBCHEM_BONDANNOTATIONS>
15  17  8
15  19  8
17  20  8
19  22  8
20  23  8
22  23  8
4  8  8
4  9  8
6  7  8
6  9  8
7  8  8

$$$$
9868037
  -OEChem-11282412102D

 47 50  0     0  0  0  0  0  0999 V2000
    6.0321    3.0290    0.0000 S   0  0  0  0  0  0  0  0  0  0  0  0
   13.3258    2.5402    0.0000 F   0  0  0  0  0  0  0  0  0  0  0  0
   13.2518    1.1280    0.0000 F   0  0  0  0  0  0  0  0  0  0  0  0
   11.9135    2.6143    0.0000 F   0  0  0  0  0  0  0  0  0  0  0  0
    7.5000    0.7908    0.0000 O   0  0  0  0  0  0  0  0  0  0  0  0
   11.8395    1.2020    0.0000 O   0  0  0  0  0  0  0  0  0  0  0  0
    5.5321    0.4902    0.0000 N   0  0  0  0  0  0  0  0  0  0  0  0
    4.6660   -3.0098    0.0000 N   0  0  0  0  0  0  0  0  0  0  0  0
    8.0353    2.4380    0.0000 N   0  0  0  0  0  0  0  0  0  0  0  0
    4.6660   -1.0098    0.0000 C   0  0  0  0  0  0  0  0  0  0  0  0
    4.6660   -0.0098    0.0000 C   0  0  0  0  0  0  0  0  0  0  0  0
    3.8000   -1.5098    0.0000 C   0  0  0  0  0  0  0  0  0  0  0  0
    5.5321    1.4902    0.0000 C   0  0  0  0  0  0  0  0  0  0  0  0
    3.8000   -2.5098    0.0000 C   0  0  0  0  0  0  0  0  0  0  0  0
    5.5321   -1.5098    0.0000 C   0  0  0  0  0  0  0  0  0  0  0  0
    6.3411    2.0779    0.0000 C   0  0  0  0  0  0  0  0  0  0  0  0
    2.9061   -0.9752    0.0000 C   0  0  0  0  0  0  0  0  0  0  0  0
    4.7230    2.0779    0.0000 C   0  0  0  0  0  0  0  0  0  0  0  0
    2.9061   -3.0445    0.0000 C   0  0  0  0  0  0  0  0  0  0  0  0
    5.5321   -2.5098    0.0000 C   0  0  0  0  0  0  0  0  0  0  0  0
    2.0000   -1.4890    0.0000 C   0  0  0  0  0  0  0  0  0  0  0  0
    7.2921    1.7689    0.0000 C   0  0  0  0  0  0  0  0  0  0  0  0
    2.0000   -2.5307    0.0000 C   0  0  0  0  0  0  0  0  0  0  0  0
    5.0321    3.0290    0.0000 C   0  0  0  0  0  0  0  0  0  0  0  0
    8.9863    2.1290    0.0000 C   0  0  0  0  0  0  0  0  0  0  0  0
    9.1942    1.1509    0.0000 C   0  0  0  0  0  0  0  0  0  0  0  0
    9.7295    2.7982    0.0000 C   0  0  0  0  0  0  0  0  0  0  0  0
   10.8884    1.5110    0.0000 C   0  0  0  0  0  0  0  0  0  0  0  0
   10.1453    0.8419    0.0000 C   0  0  0  0  0  0  0  0  0  0  0  0
   10.6805    2.4892    0.0000 C   0  0  0  0  0  0  0  0  0  0  0  0
   12.5826    1.8711    0.0000 C   0  0  0  0  0  0  0  0  0  0  0  0
    4.4540    0.5728    0.0000 H   0  0  0  0  0  0  0  0  0  0  0  0
    4.0555   -0.1175    0.0000 H   0  0  0  0  0  0  0  0  0  0  0  0
    6.0690    0.1802    0.0000 H   0  0  0  0  0  0  0  0  0  0  0  0
    6.0690   -1.1998    0.0000 H   0  0  0  0  0  0  0  0  0  0  0  0
    2.9132   -0.3552    0.0000 H   0  0  0  0  0  0  0  0  0  0  0  0
    4.1334    1.8864    0.0000 H   0  0  0  0  0  0  0  0  0  0  0  0
    2.9132   -3.6645    0.0000 H   0  0  0  0  0  0  0  0  0  0  0  0
    6.0690   -2.8198    0.0000 H   0  0  0  0  0  0  0  0  0  0  0  0
    1.4643   -1.1770    0.0000 H   0  0  0  0  0  0  0  0  0  0  0  0
    1.4643   -2.8427    0.0000 H   0  0  0  0  0  0  0  0  0  0  0  0
    4.6676    3.5306    0.0000 H   0  0  0  0  0  0  0  0  0  0  0  0
    7.9064    3.0445    0.0000 H   0  0  0  0  0  0  0  0  0  0  0  0
    8.7335    0.7360    0.0000 H   0  0  0  0  0  0  0  0  0  0  0  0
    9.6006    3.4046    0.0000 H   0  0  0  0  0  0  0  0  0  0  0  0
   10.2742    0.2354    0.0000 H   0  0  0  0  0  0  0  0  0  0  0  0
   11.1413    2.9040    0.0000 H   0  0  0  0  0  0  0  0  0  0  0  0
  1 16  1  0  0  0  0
  1 24  1  0  0  0  0
  2 31  1  0  0  0  0
  3 31  1  0  0  0  0
  4 31  1  0  0  0  0
  5 22  2  0  0  0  0
  6 28  1  0  0  0  0
  6 31  1  0  0  0  0
  7 11  1  0  0  0  0
  7 13  1  0  0  0  0
  7 34  1  0  0  0  0
  8 14  1  0  0  0  0
  8 20  2  0  0  0  0
  9 22  1  0  0  0  0
  9 25  1  0  0  0  0
  9 43  1  0  0  0  0
 10 11  1  0  0  0  0
 10 12  1  0  0  0  0
 10 15  2  0  0  0  0
 11 32  1  0  0  0  0
 11 33  1  0  0  0  0
 12 14  1  0  0  0  0
 12 17  2  0  0  0  0
 13 16  2  0  0  0  0
 13 18  1  0  0  0  0
 14 19  2  0  0  0  0
 15 20  1  0  0  0  0
 15 35  1  0  0  0  0
 16 22  1  0  0  0  0
 17 21  1  0  0  0  0
 17 36  1  0  0  0  0
 18 24  2  0  0  0  0
 18 37  1  0  0  0  0
 19 23  1  0  0  0  0
 19 38  1  0  0  0  0
 20 39  1  0  0  0  0
 21 23  2  0  0  0  0
 21 40  1  0  0  0  0
 23 41  1  0  0  0  0
 24 42  1  0  0  0  0
 25 26  2  0  0  0  0
 25 27  1  0  0  0  0
 26 29  1  0  0  0  0
 26 44  1  0  0  0  0
 27 30  2  0  0  0  0
 27 45  1  0  0  0  0
 28 29  2  0  0  0  0
 28 30  1  0  0  0  0
 29 46  1  0  0  0  0
 30 47  1  0  0  0  0
M  END
> <PUBCHEM_COMPOUND_CID>
9868037

> <PUBCHEM_COMPOUND_CANONICALIZED>
1

> <PUBCHEM_CACTVS_COMPLEXITY>
601

> <PUBCHEM_CACTVS_HBOND_ACCEPTOR>
8

> <PUBCHEM_CACTVS_HBOND_DONOR>
2

> <PUBCHEM_CACTVS_ROTATABLE_BOND>
6

> <PUBCHEM_CACTVS_SUBSKEYS>
AAADceB7MYBAAAAAAAAAAAAAAAAAASAAAAA8YIAAAAAAAACx/AAAHwQQAAAADAzF3hS8x/LIFAisAzV3VACDiKA1KjBI2L0+bNgMJvrk9ZuEMaxk1BHo6Ue4wMAOgEAAAAACAAAAgAAAAAQAAAAAAAAAAA==

> <PUBCHEM_IUPAC_OPENEYE_NAME>
3-(4-quinolylmethylamino)-N-[4-(trifluoromethoxy)phenyl]thiophene-2-carboxamide

> <PUBCHEM_IUPAC_CAS_NAME>
3-(4-quinolinylmethylamino)-N-[4-(trifluoromethoxy)phenyl]-2-thiophenecarboxamide

> <PUBCHEM_IUPAC_NAME_MARKUP>
3-(quinolin-4-ylmethylamino)-<I>N</I>-[4-(trifluoromethoxy)phenyl]thiophene-2-carboxamide

> <PUBCHEM_IUPAC_NAME>
3-(quinolin-4-ylmethylamino)-N-[4-(trifluoromethoxy)phenyl]thiophene-2-carboxamide

> <PUBCHEM_IUPAC_SYSTEMATIC_NAME>
3-(quinolin-4-ylmethylamino)-N-[4-(trifluoromethyloxy)phenyl]thiophene-2-carboxamide

> <PUBCHEM_IUPAC_TRADITIONAL_NAME>
3-(4-quinolylmethylamino)-N-[4-(trifluoromethoxy)phenyl]thiophene-2-carboxamide

> <PUBCHEM_IUPAC_INCHI>
InChI=1S/C22H16F3N3O2S/c23-22(24,25)30-16-7-5-15(6-8-16)28-21(29)20-19(10-12-31-20)27-13-14-9-11-26-18-4-2-1-3-17(14)18/h1-12,27H,13H2,(H,28,29)

> <PUBCHEM_IUPAC_INCHIKEY>
FGTCROZDHDSNIO-UHFFFAOYSA-N

> <PUBCHEM_XLOGP3_AA>
6.2

> <PUBCHEM_EXACT_MASS>
443.09153242

> <PUBCHEM_MOLECULAR_FORMULA>
C22H16F3N3O2S

> <PUBCHEM_MOLECULAR_WEIGHT>
443.4

> <PUBCHEM_OPENEYE_CAN_SMILES>
C1=CC=C2C(=C1)C(=CC=N2)CNC3=C(SC=C3)C(=O)NC4=CC=C(C=C4)OC(F)(F)F

> <PUBCHEM_OPENEYE_ISO_SMILES>
C1=CC=C2C(=C1)C(=CC=N2)CNC3=C(SC=C3)C(=O)NC4=CC=C(C=C4)OC(F)(F)F

> <PUBCHEM_CACTVS_TPSA>
91.5

> <PUBCHEM_MONOISOTOPIC_WEIGHT>
443.09153242

> <PUBCHEM_TOTAL_CHARGE>
0

> <PUBCHEM_HEAVY_ATOM_COUNT>
31

> <PUBCHEM_ATOM_DEF_STEREO_COUNT>
0

> <PUBCHEM_ATOM_UDEF_STEREO_COUNT>
0

> <PUBCHEM_BOND_DEF_STEREO_COUNT>
0

> <PUBCHEM_BOND_UDEF_STEREO_COUNT>
0

> <PUBCHEM_ISOTOPIC_ATOM_COUNT>
0

> <PUBCHEM_COMPONENT_COUNT>
1

> <PUBCHEM_CACTVS_TAUTO_COUNT>
-1

> <PUBCHEM_COORDINATE_TYPE>
1
5
255

> <PUBCHEM_BONDANNOTATIONS>
1  16  8
1  24  8
10  12  8
10  15  8
12  14  8
12  17  8
13  16  8
13  18  8
14  19  8
15  20  8
17  21  8
18  24  8
19  23  8
21  23  8
25  26  8
25  27  8
26  29  8
27  30  8
28  29  8
28  30  8
8  14  8
8  20  8

$$$$
17754438
  -OEChem-11282412102D

 44 48  0     0  0  0  0  0  0999 V2000
    2.0000    3.4526    0.0000 O   0  0  0  0  0  0  0  0  0  0  0  0
    6.9782   -2.5346    0.0000 N   0  0  0  0  0  0  0  0  0  0  0  0
    3.5173    1.2851    0.0000 N   0  0  0  0  0  0  0  0  0  0  0  0
    5.7598   -1.1790    0.0000 N   0  0  0  0  0  0  0  0  0  0  0  0
    6.8751   -3.5234    0.0000 N   0  0  0  0  0  0  0  0  0  0  0  0
    4.4678    1.5958    0.0000 N   0  0  0  0  0  0  0  0  0  0  0  0
    4.4241   -2.6676    0.0000 N   0  0  0  0  0  0  0  0  0  0  0  0
    5.9033   -3.7326    0.0000 N   0  0  0  0  0  0  0  0  0  0  0  0
   11.3362   -4.0693    0.0000 N   0  0  0  0  0  0  0  0  0  0  0  0
    7.8442   -2.0346    0.0000 C   0  0  0  0  0  0  0  0  0  0  0  0
    8.7102   -2.5346    0.0000 C   0  0  0  0  0  0  0  0  0  0  0  0
    6.0704   -2.1295    0.0000 C   0  0  0  0  0  0  0  0  0  0  0  0
    4.4706   -0.0223    0.0000 C   0  0  0  0  0  0  0  0  0  0  0  0
    9.5763   -2.0346    0.0000 C   0  0  0  0  0  0  0  0  0  0  0  0
    4.7812   -0.9728    0.0000 C   0  0  0  0  0  0  0  0  0  0  0  0
   10.4423   -2.5346    0.0000 C   0  0  0  0  0  0  0  0  0  0  0  0
    5.4026   -2.8738    0.0000 C   0  0  0  0  0  0  0  0  0  0  0  0
    8.7102   -3.5346    0.0000 C   0  0  0  0  0  0  0  0  0  0  0  0
    3.5190    0.2851    0.0000 C   0  0  0  0  0  0  0  0  0  0  0  0
   10.4423   -3.5346    0.0000 C   0  0  0  0  0  0  0  0  0  0  0  0
    2.7072    1.8715    0.0000 C   0  0  0  0  0  0  0  0  0  0  0  0
    9.5763   -4.0346    0.0000 C   0  0  0  0  0  0  0  0  0  0  0  0
    5.0570    0.7878    0.0000 C   0  0  0  0  0  0  0  0  0  0  0  0
    4.1134   -1.7171    0.0000 C   0  0  0  0  0  0  0  0  0  0  0  0
   11.3362   -2.0000    0.0000 C   0  0  0  0  0  0  0  0  0  0  0  0
    2.8100    2.8662    0.0000 C   0  0  0  0  0  0  0  0  0  0  0  0
   12.2423   -2.5138    0.0000 C   0  0  0  0  0  0  0  0  0  0  0  0
   12.2423   -3.5554    0.0000 C   0  0  0  0  0  0  0  0  0  0  0  0
    8.2427   -1.5597    0.0000 H   0  0  0  0  0  0  0  0  0  0  0  0
    7.4457   -1.5597    0.0000 H   0  0  0  0  0  0  0  0  0  0  0  0
    9.5763   -1.4146    0.0000 H   0  0  0  0  0  0  0  0  0  0  0  0
    8.1733   -3.8446    0.0000 H   0  0  0  0  0  0  0  0  0  0  0  0
    3.0180   -0.0802    0.0000 H   0  0  0  0  0  0  0  0  0  0  0  0
    2.1110    2.0414    0.0000 H   0  0  0  0  0  0  0  0  0  0  0  0
    2.4364    1.3138    0.0000 H   0  0  0  0  0  0  0  0  0  0  0  0
    9.5763   -4.6546    0.0000 H   0  0  0  0  0  0  0  0  0  0  0  0
    5.6770    0.7888    0.0000 H   0  0  0  0  0  0  0  0  0  0  0  0
    3.5067   -1.5892    0.0000 H   0  0  0  0  0  0  0  0  0  0  0  0
   11.3291   -1.3800    0.0000 H   0  0  0  0  0  0  0  0  0  0  0  0
    3.4063    2.6963    0.0000 H   0  0  0  0  0  0  0  0  0  0  0  0
    3.0809    3.4239    0.0000 H   0  0  0  0  0  0  0  0  0  0  0  0
   12.7780   -2.2018    0.0000 H   0  0  0  0  0  0  0  0  0  0  0  0
   12.7780   -3.8675    0.0000 H   0  0  0  0  0  0  0  0  0  0  0  0
    2.0637    4.0693    0.0000 H   0  0  0  0  0  0  0  0  0  0  0  0
  1 26  1  0  0  0  0
  1 44  1  0  0  0  0
  2  5  1  0  0  0  0
  2 10  1  0  0  0  0
  2 12  1  0  0  0  0
  3  6  1  0  0  0  0
  3 19  1  0  0  0  0
  3 21  1  0  0  0  0
  4 12  2  0  0  0  0
  4 15  1  0  0  0  0
  5  8  2  0  0  0  0
  6 23  2  0  0  0  0
  7 17  2  0  0  0  0
  7 24  1  0  0  0  0
  8 17  1  0  0  0  0
  9 20  1  0  0  0  0
  9 28  2  0  0  0  0
 10 11  1  0  0  0  0
 10 29  1  0  0  0  0
 10 30  1  0  0  0  0
 11 14  2  0  0  0  0
 11 18  1  0  0  0  0
 12 17  1  0  0  0  0
 13 15  1  0  0  0  0
 13 19  2  0  0  0  0
 13 23  1  0  0  0  0
 14 16  1  0  0  0  0
 14 31  1  0  0  0  0
 15 24  2  0  0  0  0
 16 20  2  0  0  0  0
 16 25  1  0  0  0  0
 18 22  2  0  0  0  0
 18 32  1  0  0  0  0
 19 33  1  0  0  0  0
 20 22  1  0  0  0  0
 21 26  1  0  0  0  0
 21 34  1  0  0  0  0
 21 35  1  0  0  0  0
 22 36  1  0  0  0  0
 23 37  1  0  0  0  0
 24 38  1  0  0  0  0
 25 27  2  0  0  0  0
 25 39  1  0  0  0  0
 26 40  1  0  0  0  0
 26 41  1  0  0  0  0
 27 28  1  0  0  0  0
 27 42  1  0  0  0  0
 28 43  1  0  0  0  0
M  END
> <PUBCHEM_COMPOUND_CID>
17754438

> <PUBCHEM_COMPOUND_CANONICALIZED>
1

> <PUBCHEM_CACTVS_COMPLEXITY>
524

> <PUBCHEM_CACTVS_HBOND_ACCEPTOR>
7

> <PUBCHEM_CACTVS_HBOND_DONOR>
1

> <PUBCHEM_CACTVS_ROTATABLE_BOND>
5

> <PUBCHEM_CACTVS_SUBSKEYS>
AAADceB74AAAAAAAAAAAAAAAAAAAAWLAAAA8WIAAAAAAAFix/gAAHgAICAAADAjhnwY98P4IEgCiAzZnZACShC8xkqAd2CA4dJiKeOLA2dGUpAhoiALYyCcQgMAOCAACAAACAAAQAAQAAAQAAAAAAAAAAA==

> <PUBCHEM_IUPAC_OPENEYE_NAME>
2-[4-[3-(6-quinolylmethyl)triazolo[4,5-b]pyrazin-5-yl]pyrazol-1-yl]ethanol

> <PUBCHEM_IUPAC_CAS_NAME>
2-[4-[3-(6-quinolinylmethyl)-5-triazolo[4,5-b]pyrazinyl]-1-pyrazolyl]ethanol

> <PUBCHEM_IUPAC_NAME_MARKUP>
2-[4-[3-(quinolin-6-ylmethyl)triazolo[4,5-b]pyrazin-5-yl]pyrazol-1-yl]ethanol

> <PUBCHEM_IUPAC_NAME>
2-[4-[3-(quinolin-6-ylmethyl)triazolo[4,5-b]pyrazin-5-yl]pyrazol-1-yl]ethanol

> <PUBCHEM_IUPAC_SYSTEMATIC_NAME>
2-[4-[3-(quinolin-6-ylmethyl)-[1,2,3]triazolo[4,5-b]pyrazin-5-yl]pyrazol-1-yl]ethanol

> <PUBCHEM_IUPAC_TRADITIONAL_NAME>
2-[4-[3-(6-quinolylmethyl)triazolo[4,5-b]pyrazin-5-yl]pyrazol-1-yl]ethanol

> <PUBCHEM_IUPAC_INCHI>
InChI=1S/C19H16N8O/c28-7-6-26-12-15(9-22-26)17-10-21-18-19(23-17)27(25-24-18)11-13-3-4-16-14(8-13)2-1-5-20-16/h1-5,8-10,12,28H,6-7,11H2

> <PUBCHEM_IUPAC_INCHIKEY>
PDMUGYOXRHVNMO-UHFFFAOYSA-N

> <PUBCHEM_XLOGP3_AA>
0.7

> <PUBCHEM_EXACT_MASS>
372.14470716

> <PUBCHEM_MOLECULAR_FORMULA>
C19H16N8O

> <PUBCHEM_MOLECULAR_WEIGHT>
372.4

> <PUBCHEM_OPENEYE_CAN_SMILES>
C1=CC2=C(C=CC(=C2)CN3C4=NC(=CN=C4N=N3)C5=CN(N=C5)CCO)N=C1

> <PUBCHEM_OPENEYE_ISO_SMILES>
C1=CC2=C(C=CC(=C2)CN3C4=NC(=CN=C4N=N3)C5=CN(N=C5)CCO)N=C1

> <PUBCHEM_CACTVS_TPSA>
107

> <PUBCHEM_MONOISOTOPIC_WEIGHT>
372.14470716

> <PUBCHEM_TOTAL_CHARGE>
0

> <PUBCHEM_HEAVY_ATOM_COUNT>
28

> <PUBCHEM_ATOM_DEF_STEREO_COUNT>
0

> <PUBCHEM_ATOM_UDEF_STEREO_COUNT>
0

> <PUBCHEM_BOND_DEF_STEREO_COUNT>
0

> <PUBCHEM_BOND_UDEF_STEREO_COUNT>
0

> <PUBCHEM_ISOTOPIC_ATOM_COUNT>
0

> <PUBCHEM_COMPONENT_COUNT>
1

> <PUBCHEM_CACTVS_TAUTO_COUNT>
-1

> <PUBCHEM_COORDINATE_TYPE>
1
5
255

> <PUBCHEM_BONDANNOTATIONS>
11  14  8
11  18  8
12  17  8
13  19  8
13  23  8
14  16  8
15  24  8
16  20  8
16  25  8
18  22  8
2  12  8
2  5  8
20  22  8
25  27  8
27  28  8
3  19  8
3  6  8
4  12  8
4  15  8
5  8  8
6  23  8
7  17  8
7  24  8
8  17  8
9  20  8
9  28  8

$$$$
24794418
  -OEChem-11282412102D

 55 58  0     0  0  0  0  0  0999 V2000
    4.2690    5.0000    0.0000 Cl  0  0  0  0  0  0  0  0  0  0  0  0
    7.7331    5.0000    0.0000 F   0  0  0  0  0  0  0  0  0  0  0  0
   11.1972   -5.0000    0.0000 F   0  0  0  0  0  0  0  0  0  0  0  0
   11.1972    2.0000    0.0000 O   0  0  0  0  0  0  0  0  0  0  0  0
    9.4651   -1.0000    0.0000 O   0  0  0  0  0  0  0  0  0  0  0  0
    6.0010    4.0000    0.0000 O   0  0  0  0  0  0  0  0  0  0  0  0
    8.5991    0.5000    0.0000 O   0  0  0  0  0  0  0  0  0  0  0  0
   11.1972   -1.0000    0.0000 N   0  0  0  0  0  0  0  0  0  0  0  0
    9.4651    2.0000    0.0000 N   0  0  0  0  0  0  0  0  0  0  0  0
    3.4030    2.5000    0.0000 N   0  0  0  0  0  0  0  0  0  0  0  0
    2.5369    4.0000    0.0000 N   0  0  0  0  0  0  0  0  0  0  0  0
   10.3312    0.5000    0.0000 C   0  0  0  0  0  0  0  0  0  0  0  0
   10.3312   -0.5000    0.0000 C   0  0  0  0  0  0  0  0  0  0  0  0
   11.1972    1.0000    0.0000 C   0  0  0  0  0  0  0  0  0  0  0  0
   11.1972   -2.0000    0.0000 C   0  0  0  0  0  0  0  0  0  0  0  0
   12.0632   -0.5000    0.0000 C   0  0  0  0  0  0  0  0  0  0  0  0
   12.0632    0.5000    0.0000 C   0  0  0  0  0  0  0  0  0  0  0  0
    9.4651    1.0000    0.0000 C   0  0  0  0  0  0  0  0  0  0  0  0
    8.5991    2.5000    0.0000 C   0  0  0  0  0  0  0  0  0  0  0  0
   12.0632   -2.5000    0.0000 C   0  0  0  0  0  0  0  0  0  0  0  0
   10.3312   -2.5000    0.0000 C   0  0  0  0  0  0  0  0  0  0  0  0
    8.5991    3.5000    0.0000 C   0  0  0  0  0  0  0  0  0  0  0  0
    7.7331    2.0000    0.0000 C   0  0  0  0  0  0  0  0  0  0  0  0
   12.0632    2.5000    0.0000 C   0  0  0  0  0  0  0  0  0  0  0  0
   12.0632   -3.5000    0.0000 C   0  0  0  0  0  0  0  0  0  0  0  0
   10.3312   -3.5000    0.0000 C   0  0  0  0  0  0  0  0  0  0  0  0
    6.8671    3.5000    0.0000 C   0  0  0  0  0  0  0  0  0  0  0  0
    7.7331    4.0000    0.0000 C   0  0  0  0  0  0  0  0  0  0  0  0
    6.8671    2.5000    0.0000 C   0  0  0  0  0  0  0  0  0  0  0  0
   11.1972   -4.0000    0.0000 C   0  0  0  0  0  0  0  0  0  0  0  0
   12.0632    3.5000    0.0000 C   0  0  0  0  0  0  0  0  0  0  0  0
    5.1350    3.5000    0.0000 C   0  0  0  0  0  0  0  0  0  0  0  0
    4.2690    4.0000    0.0000 C   0  0  0  0  0  0  0  0  0  0  0  0
    5.1350    2.5000    0.0000 C   0  0  0  0  0  0  0  0  0  0  0  0
    3.4030    3.5000    0.0000 C   0  0  0  0  0  0  0  0  0  0  0  0
    4.2690    2.0000    0.0000 C   0  0  0  0  0  0  0  0  0  0  0  0
   12.6002   -0.8100    0.0000 H   0  0  0  0  0  0  0  0  0  0  0  0
   12.6002    0.8100    0.0000 H   0  0  0  0  0  0  0  0  0  0  0  0
   10.0021    2.3100    0.0000 H   0  0  0  0  0  0  0  0  0  0  0  0
   12.6002   -2.1900    0.0000 H   0  0  0  0  0  0  0  0  0  0  0  0
    9.7942   -2.1900    0.0000 H   0  0  0  0  0  0  0  0  0  0  0  0
    9.1360    3.8100    0.0000 H   0  0  0  0  0  0  0  0  0  0  0  0
    7.7331    1.3800    0.0000 H   0  0  0  0  0  0  0  0  0  0  0  0
   12.2753    1.9174    0.0000 H   0  0  0  0  0  0  0  0  0  0  0  0
   12.6738    2.6077    0.0000 H   0  0  0  0  0  0  0  0  0  0  0  0
   12.6002   -3.8100    0.0000 H   0  0  0  0  0  0  0  0  0  0  0  0
    9.7942   -3.8100    0.0000 H   0  0  0  0  0  0  0  0  0  0  0  0
    6.3301    2.1900    0.0000 H   0  0  0  0  0  0  0  0  0  0  0  0
   12.6832    3.5000    0.0000 H   0  0  0  0  0  0  0  0  0  0  0  0
   12.0632    4.1200    0.0000 H   0  0  0  0  0  0  0  0  0  0  0  0
   11.4432    3.5000    0.0000 H   0  0  0  0  0  0  0  0  0  0  0  0
    5.6720    2.1900    0.0000 H   0  0  0  0  0  0  0  0  0  0  0  0
    4.2690    1.3800    0.0000 H   0  0  0  0  0  0  0  0  0  0  0  0
    2.0000    3.6900    0.0000 H   0  0  0  0  0  0  0  0  0  0  0  0
    2.5369    4.6200    0.0000 H   0  0  0  0  0  0  0  0  0  0  0  0
  1 33  1  0  0  0  0
  2 28  1  0  0  0  0
  3 30  1  0  0  0  0
  4 14  1  0  0  0  0
  4 24  1  0  0  0  0
  5 13  2  0  0  0  0
  6 27  1  0  0  0  0
  6 32  1  0  0  0  0
  7 18  2  0  0  0  0
  8 13  1  0  0  0  0
  8 15  1  0  0  0  0
  8 16  1  0  0  0  0
  9 18  1  0  0  0  0
  9 19  1  0  0  0  0
  9 39  1  0  0  0  0
 10 35  2  0  0  0  0
 10 36  1  0  0  0  0
 11 35  1  0  0  0  0
 11 54  1  0  0  0  0
 11 55  1  0  0  0  0
 12 13  1  0  0  0  0
 12 14  2  0  0  0  0
 12 18  1  0  0  0  0
 14 17  1  0  0  0  0
 15 20  2  0  0  0  0
 15 21  1  0  0  0  0
 16 17  2  0  0  0  0
 16 37  1  0  0  0  0
 17 38  1  0  0  0  0
 19 22  2  0  0  0  0
 19 23  1  0  0  0  0
 20 25  1  0  0  0  0
 20 40  1  0  0  0  0
 21 26  2  0  0  0  0
 21 41  1  0  0  0  0
 22 28  1  0  0  0  0
 22 42  1  0  0  0  0
 23 29  2  0  0  0  0
 23 43  1  0  0  0  0
 24 31  1  0  0  0  0
 24 44  1  0  0  0  0
 24 45  1  0  0  0  0
 25 30  2  0  0  0  0
 25 46  1  0  0  0  0
 26 30  1  0  0  0  0
 26 47  1  0  0  0  0
 27 28  2  0  0  0  0
 27 29  1  0  0  0  0
 29 48  1  0  0  0  0
 31 49  1  0  0  0  0
 31 50  1  0  0  0  0
 31 51  1  0  0  0  0
 32 33  2  0  0  0  0
 32 34  1  0  0  0  0
 33 35  1  0  0  0  0
 34 36  2  0  0  0  0
 34 52  1  0  0  0  0
 36 53  1  0  0  0  0
M  END
> <PUBCHEM_COMPOUND_CID>
24794418

> <PUBCHEM_COMPOUND_CANONICALIZED>
1

> <PUBCHEM_CACTVS_COMPLEXITY>
867

> <PUBCHEM_CACTVS_HBOND_ACCEPTOR>
8

> <PUBCHEM_CACTVS_HBOND_DONOR>
2

> <PUBCHEM_CACTVS_ROTATABLE_BOND>
7

> <PUBCHEM_CACTVS_SUBSKEYS>
AAADceB7uYAEAAAAAAAAAAAAAAAAAAAAAAA8YIEAAAAAAAAB0AAAHwIQAAAADA7hki4/9pPIFACoAjd3dACCiCkxJmAI2CE+b9iMJmvN85vGOCjm1hvI6SewQAAAAEAAAAAAAAAAgAAAAAAAAAAAAAAAAA==

> <PUBCHEM_IUPAC_OPENEYE_NAME>
N-[4-[(2-amino-3-chloro-4-pyridyl)oxy]-3-fluoro-phenyl]-4-ethoxy-1-(4-fluorophenyl)-2-oxo-pyridine-3-carboxamide

> <PUBCHEM_IUPAC_CAS_NAME>
N-[4-[(2-amino-3-chloro-4-pyridinyl)oxy]-3-fluorophenyl]-4-ethoxy-1-(4-fluorophenyl)-2-oxo-3-pyridinecarboxamide

> <PUBCHEM_IUPAC_NAME_MARKUP>
<I>N</I>-[4-(2-amino-3-chloropyridin-4-yl)oxy-3-fluorophenyl]-4-ethoxy-1-(4-fluorophenyl)-2-oxopyridine-3-carboxamide

> <PUBCHEM_IUPAC_NAME>
N-[4-(2-amino-3-chloropyridin-4-yl)oxy-3-fluorophenyl]-4-ethoxy-1-(4-fluorophenyl)-2-oxopyridine-3-carboxamide

> <PUBCHEM_IUPAC_SYSTEMATIC_NAME>
N-[4-(2-azanyl-3-chloranyl-pyridin-4-yl)oxy-3-fluoranyl-phenyl]-4-ethoxy-1-(4-fluorophenyl)-2-oxidanylidene-pyridine-3-carboxamide

> <PUBCHEM_IUPAC_TRADITIONAL_NAME>
N-[4-[(2-amino-3-chloro-4-pyridyl)oxy]-3-fluoro-phenyl]-4-ethoxy-1-(4-fluorophenyl)-2-keto-nicotinamide

> <PUBCHEM_IUPAC_INCHI>
InChI=1S/C25H19ClF2N4O4/c1-2-35-19-10-12-32(16-6-3-14(27)4-7-16)25(34)21(19)24(33)31-15-5-8-18(17(28)13-15)36-20-9-11-30-23(29)22(20)26/h3-13H,2H2,1H3,(H2,29,30)(H,31,33)

> <PUBCHEM_IUPAC_INCHIKEY>
VNBRGSXVFBYQNN-UHFFFAOYSA-N

> <PUBCHEM_XLOGP3_AA>
4

> <PUBCHEM_EXACT_MASS>
512.1062891

> <PUBCHEM_MOLECULAR_FORMULA>
C25H19ClF2N4O4

> <PUBCHEM_MOLECULAR_WEIGHT>
512.9

> <PUBCHEM_OPENEYE_CAN_SMILES>
CCOC1=C(C(=O)N(C=C1)C2=CC=C(C=C2)F)C(=O)NC3=CC(=C(C=C3)OC4=C(C(=NC=C4)N)Cl)F

> <PUBCHEM_OPENEYE_ISO_SMILES>
CCOC1=C(C(=O)N(C=C1)C2=CC=C(C=C2)F)C(=O)NC3=CC(=C(C=C3)OC4=C(C(=NC=C4)N)Cl)F

> <PUBCHEM_CACTVS_TPSA>
107

> <PUBCHEM_MONOISOTOPIC_WEIGHT>
512.1062891

> <PUBCHEM_TOTAL_CHARGE>
0

> <PUBCHEM_HEAVY_ATOM_COUNT>
36

> <PUBCHEM_ATOM_DEF_STEREO_COUNT>
0

> <PUBCHEM_ATOM_UDEF_STEREO_COUNT>
0

> <PUBCHEM_BOND_DEF_STEREO_COUNT>
0

> <PUBCHEM_BOND_UDEF_STEREO_COUNT>
0

> <PUBCHEM_ISOTOPIC_ATOM_COUNT>
0

> <PUBCHEM_COMPONENT_COUNT>
1

> <PUBCHEM_CACTVS_TAUTO_COUNT>
-1

> <PUBCHEM_COORDINATE_TYPE>
1
5
255

> <PUBCHEM_BONDANNOTATIONS>
10  35  8
10  36  8
12  13  8
12  14  8
14  17  8
15  20  8
15  21  8
16  17  8
19  22  8
19  23  8
20  25  8
21  26  8
22  28  8
23  29  8
25  30  8
26  30  8
27  28  8
27  29  8
32  33  8
32  34  8
33  35  8
34  36  8
8  13  8
8  16  8

$$$$
121280087
  -OEChem-11282412102D

 74 78  0     1  0  0  0  0  0999 V2000
    9.2136    0.2806    0.0000 O   0  0  0  0  0  0  0  0  0  0  0  0
    5.2531    2.1011    0.0000 O   0  0  0  0  0  0  0  0  0  0  0  0
    4.6783   -4.0547    0.0000 N   0  0  0  0  0  0  0  0  0  0  0  0
    5.9674   -1.2885    0.0000 N   0  0  0  0  0  0  0  0  0  0  0  0
    5.6103    0.4063    0.0000 N   0  0  0  0  0  0  0  0  0  0  0  0
    7.2566   -0.1318    0.0000 N   0  0  0  0  0  0  0  0  0  0  0  0
    8.4993    3.6703    0.0000 N   0  0  3  0  0  0  0  0  0  0  0  0
   10.7669    5.0332    0.0000 N   0  0  0  0  0  0  0  0  0  0  0  0
    6.5422    3.2578    0.0000 N   0  0  0  0  0  0  0  0  0  0  0  0
    4.9889   -5.0053    0.0000 C   0  0  0  0  0  0  0  0  0  0  0  0
    4.7827   -5.9838    0.0000 C   0  0  0  0  0  0  0  0  0  0  0  0
    5.7332   -5.6731    0.0000 C   0  0  0  0  0  0  0  0  0  0  0  0
    3.7320   -3.7500    0.0000 C   0  0  0  0  0  0  0  0  0  0  0  0
    5.2619   -3.2500    0.0000 C   0  0  0  0  0  0  0  0  0  0  0  0
    3.7320   -2.7500    0.0000 C   0  0  0  0  0  0  0  0  0  0  0  0
    4.6783   -2.4453    0.0000 C   0  0  0  0  0  0  0  0  0  0  0  0
    2.8660   -4.2500    0.0000 C   0  0  0  0  0  0  0  0  0  0  0  0
    2.8660   -2.2500    0.0000 C   0  0  0  0  0  0  0  0  0  0  0  0
    4.9889   -1.4948    0.0000 C   0  0  0  0  0  0  0  0  0  0  0  0
    2.0000   -3.7500    0.0000 C   0  0  0  0  0  0  0  0  0  0  0  0
    2.0000   -2.7500    0.0000 C   0  0  0  0  0  0  0  0  0  0  0  0
    4.3211   -0.7505    0.0000 C   0  0  0  0  0  0  0  0  0  0  0  0
    6.2781   -0.3380    0.0000 C   0  0  0  0  0  0  0  0  0  0  0  0
    4.6318    0.2001    0.0000 C   0  0  0  0  0  0  0  0  0  0  0  0
    7.5673    0.8187    0.0000 C   0  0  0  0  0  0  0  0  0  0  0  0
    8.1886    2.7198    0.0000 C   0  0  0  0  0  0  0  0  0  0  0  0
    9.4778    3.8765    0.0000 C   0  0  0  0  0  0  0  0  0  0  0  0
    7.2101    2.5136    0.0000 C   0  0  0  0  0  0  0  0  0  0  0  0
    9.7884    4.8270    0.0000 C   0  0  0  0  0  0  0  0  0  0  0  0
    8.5458    1.0249    0.0000 C   0  0  0  0  0  0  0  0  0  0  0  0
    6.8994    1.5630    0.0000 C   0  0  0  0  0  0  0  0  0  0  0  0
    8.8564    1.9755    0.0000 C   0  0  0  0  0  0  0  0  0  0  0  0
    7.8314    4.4146    0.0000 C   0  0  0  0  0  0  0  0  0  0  0  0
   11.0776    5.9838    0.0000 C   0  0  0  0  0  0  0  0  0  0  0  0
   11.4348    4.2889    0.0000 C   0  0  0  0  0  0  0  0  0  0  0  0
    5.5637    3.0516    0.0000 C   0  0  0  0  0  0  0  0  0  0  0  0
   10.1921    0.4869    0.0000 C   0  0  0  0  0  0  0  0  0  0  0  0
    4.8959    3.7959    0.0000 C   0  0  0  0  0  0  0  0  0  0  0  0
    3.9174    3.5897    0.0000 C   0  0  0  0  0  0  0  0  0  0  0  0
    4.3698   -5.0388    0.0000 H   0  0  0  0  0  0  0  0  0  0  0  0
    4.1631   -5.9632    0.0000 H   0  0  0  0  0  0  0  0  0  0  0  0
    4.8701   -6.5976    0.0000 H   0  0  0  0  0  0  0  0  0  0  0  0
    6.0252   -6.2200    0.0000 H   0  0  0  0  0  0  0  0  0  0  0  0
    6.2211   -5.2906    0.0000 H   0  0  0  0  0  0  0  0  0  0  0  0
    5.8819   -3.2500    0.0000 H   0  0  0  0  0  0  0  0  0  0  0  0
    2.8660   -4.8700    0.0000 H   0  0  0  0  0  0  0  0  0  0  0  0
    2.8660   -1.6300    0.0000 H   0  0  0  0  0  0  0  0  0  0  0  0
    1.4631   -4.0600    0.0000 H   0  0  0  0  0  0  0  0  0  0  0  0
    1.4631   -2.4400    0.0000 H   0  0  0  0  0  0  0  0  0  0  0  0
    3.7144   -0.8783    0.0000 H   0  0  0  0  0  0  0  0  0  0  0  0
    4.2177    0.6615    0.0000 H   0  0  0  0  0  0  0  0  0  0  0  0
    7.6707   -0.5933    0.0000 H   0  0  0  0  0  0  0  0  0  0  0  0
    9.4983    3.2568    0.0000 H   0  0  0  0  0  0  0  0  0  0  0  0
   10.0916    3.7892    0.0000 H   0  0  0  0  0  0  0  0  0  0  0  0
    9.7679    5.4467    0.0000 H   0  0  0  0  0  0  0  0  0  0  0  0
    9.1746    4.9144    0.0000 H   0  0  0  0  0  0  0  0  0  0  0  0
    6.2928    1.4352    0.0000 H   0  0  0  0  0  0  0  0  0  0  0  0
    9.4631    2.1033    0.0000 H   0  0  0  0  0  0  0  0  0  0  0  0
    8.2929    4.8286    0.0000 H   0  0  0  0  0  0  0  0  0  0  0  0
    7.4174    4.8761    0.0000 H   0  0  0  0  0  0  0  0  0  0  0  0
    7.3700    4.0005    0.0000 H   0  0  0  0  0  0  0  0  0  0  0  0
    6.7349    3.8472    0.0000 H   0  0  0  0  0  0  0  0  0  0  0  0
   11.6669    5.7912    0.0000 H   0  0  0  0  0  0  0  0  0  0  0  0
   11.2702    6.5731    0.0000 H   0  0  0  0  0  0  0  0  0  0  0  0
   10.4883    6.1764    0.0000 H   0  0  0  0  0  0  0  0  0  0  0  0
   10.9733    3.8749    0.0000 H   0  0  0  0  0  0  0  0  0  0  0  0
   11.8488    3.8275    0.0000 H   0  0  0  0  0  0  0  0  0  0  0  0
   11.8962    4.7030    0.0000 H   0  0  0  0  0  0  0  0  0  0  0  0
   10.3200   -0.1198    0.0000 H   0  0  0  0  0  0  0  0  0  0  0  0
   10.7988    0.6147    0.0000 H   0  0  0  0  0  0  0  0  0  0  0  0
   10.0643    1.0935    0.0000 H   0  0  0  0  0  0  0  0  0  0  0  0
    5.0885    4.3852    0.0000 H   0  0  0  0  0  0  0  0  0  0  0  0
    3.5033    4.0512    0.0000 H   0  0  0  0  0  0  0  0  0  0  0  0
    3.7248    3.0004    0.0000 H   0  0  0  0  0  0  0  0  0  0  0  0
  1 30  1  0  0  0  0
  1 37  1  0  0  0  0
  2 36  2  0  0  0  0
  3 10  1  0  0  0  0
  3 13  1  0  0  0  0
  3 14  1  0  0  0  0
  4 19  2  0  0  0  0
  4 23  1  0  0  0  0
  5 23  2  0  0  0  0
  5 24  1  0  0  0  0
  6 23  1  0  0  0  0
  6 25  1  0  0  0  0
  6 52  1  0  0  0  0
  7 26  1  0  0  0  0
  7 27  1  0  0  0  0
  7 33  1  0  0  0  0
  8 29  1  0  0  0  0
  8 34  1  0  0  0  0
  8 35  1  0  0  0  0
  9 28  1  0  0  0  0
  9 36  1  0  0  0  0
  9 62  1  0  0  0  0
 10 11  1  0  0  0  0
 10 12  1  0  0  0  0
 10 40  1  0  0  0  0
 11 12  1  0  0  0  0
 11 41  1  0  0  0  0
 11 42  1  0  0  0  0
 12 43  1  0  0  0  0
 12 44  1  0  0  0  0
 13 15  1  0  0  0  0
 13 17  2  0  0  0  0
 14 16  2  0  0  0  0
 14 45  1  0  0  0  0
 15 16  1  0  0  0  0
 15 18  2  0  0  0  0
 16 19  1  0  0  0  0
 17 20  1  0  0  0  0
 17 46  1  0  0  0  0
 18 21  1  0  0  0  0
 18 47  1  0  0  0  0
 19 22  1  0  0  0  0
 20 21  2  0  0  0  0
 20 48  1  0  0  0  0
 21 49  1  0  0  0  0
 22 24  2  0  0  0  0
 22 50  1  0  0  0  0
 24 51  1  0  0  0  0
 25 30  2  0  0  0  0
 25 31  1  0  0  0  0
 26 28  1  0  0  0  0
 26 32  2  0  0  0  0
 27 29  1  0  0  0  0
 27 53  1  0  0  0  0
 27 54  1  0  0  0  0
 28 31  2  0  0  0  0
 29 55  1  0  0  0  0
 29 56  1  0  0  0  0
 30 32  1  0  0  0  0
 31 57  1  0  0  0  0
 32 58  1  0  0  0  0
 33 59  1  0  0  0  0
 33 60  1  0  0  0  0
 33 61  1  0  0  0  0
 34 63  1  0  0  0  0
 34 64  1  0  0  0  0
 34 65  1  0  0  0  0
 35 66  1  0  0  0  0
 35 67  1  0  0  0  0
 35 68  1  0  0  0  0
 36 38  1  0  0  0  0
 37 69  1  0  0  0  0
 37 70  1  0  0  0  0
 37 71  1  0  0  0  0
 38 39  2  0  0  0  0
 38 72  1  0  0  0  0
 39 73  1  0  0  0  0
 39 74  1  0  0  0  0
M  END
> <PUBCHEM_COMPOUND_CID>
121280087

> <PUBCHEM_COMPOUND_CANONICALIZED>
1

> <PUBCHEM_CACTVS_COMPLEXITY>
823

> <PUBCHEM_CACTVS_HBOND_ACCEPTOR>
7

> <PUBCHEM_CACTVS_HBOND_DONOR>
2

> <PUBCHEM_CACTVS_ROTATABLE_BOND>
11

> <PUBCHEM_CACTVS_SUBSKEYS>
AAADcfB7sAAAAAAAAAAAAAAAGAAAAWAAAAA8YIAAAAAAAFgB/AAAHgAQAAAADCzBngY/1vfMFACoAzV3dACCiCkxIqAJ2CA/fNiObuLE+duVNChu1BvY6Kew0MMOgECAAgQCECAAgQAECAQgQAAAAAAAAA==

> <PUBCHEM_IUPAC_OPENEYE_NAME>
N-[5-[[4-(1-cyclopropylindol-3-yl)pyrimidin-2-yl]amino]-2-[2-(dimethylamino)ethyl-methyl-amino]-4-methoxy-phenyl]prop-2-enamide

> <PUBCHEM_IUPAC_CAS_NAME>
N-[5-[[4-(1-cyclopropyl-3-indolyl)-2-pyrimidinyl]amino]-2-[2-(dimethylamino)ethyl-methylamino]-4-methoxyphenyl]-2-propenamide

> <PUBCHEM_IUPAC_NAME_MARKUP>
<I>N</I>-[5-[[4-(1-cyclopropylindol-3-yl)pyrimidin-2-yl]amino]-2-[2-(dimethylamino)ethyl-methylamino]-4-methoxyphenyl]prop-2-enamide

> <PUBCHEM_IUPAC_NAME>
N-[5-[[4-(1-cyclopropylindol-3-yl)pyrimidin-2-yl]amino]-2-[2-(dimethylamino)ethyl-methylamino]-4-methoxyphenyl]prop-2-enamide

> <PUBCHEM_IUPAC_SYSTEMATIC_NAME>
N-[5-[[4-(1-cyclopropylindol-3-yl)pyrimidin-2-yl]amino]-2-[2-(dimethylamino)ethyl-methyl-amino]-4-methoxy-phenyl]prop-2-enamide

> <PUBCHEM_IUPAC_TRADITIONAL_NAME>
N-[5-[[4-(1-cyclopropylindol-3-yl)pyrimidin-2-yl]amino]-2-[2-(dimethylamino)ethyl-methyl-amino]-4-methoxy-phenyl]acrylamide

> <PUBCHEM_IUPAC_INCHI>
InChI=1S/C30H35N7O2/c1-6-29(38)32-24-17-25(28(39-5)18-27(24)36(4)16-15-35(2)3)34-30-31-14-13-23(33-30)22-19-37(20-11-12-20)26-10-8-7-9-21(22)26/h6-10,13-14,17-20H,1,11-12,15-16H2,2-5H3,(H,32,38)(H,31,33,34)

> <PUBCHEM_IUPAC_INCHIKEY>
DOEOECWDNSEFDN-UHFFFAOYSA-N

> <PUBCHEM_XLOGP3_AA>
4.2

> <PUBCHEM_EXACT_MASS>
525.28522338

> <PUBCHEM_MOLECULAR_FORMULA>
C30H35N7O2

> <PUBCHEM_MOLECULAR_WEIGHT>
525.6

> <PUBCHEM_OPENEYE_CAN_SMILES>
CN(C)CCN(C)C1=CC(=C(C=C1NC(=O)C=C)NC2=NC=CC(=N2)C3=CN(C4=CC=CC=C43)C5CC5)OC

> <PUBCHEM_OPENEYE_ISO_SMILES>
CN(C)CCN(C)C1=CC(=C(C=C1NC(=O)C=C)NC2=NC=CC(=N2)C3=CN(C4=CC=CC=C43)C5CC5)OC

> <PUBCHEM_CACTVS_TPSA>
87.6

> <PUBCHEM_MONOISOTOPIC_WEIGHT>
525.28522338

> <PUBCHEM_TOTAL_CHARGE>
0

> <PUBCHEM_HEAVY_ATOM_COUNT>
39

> <PUBCHEM_ATOM_DEF_STEREO_COUNT>
0

> <PUBCHEM_ATOM_UDEF_STEREO_COUNT>
0

> <PUBCHEM_BOND_DEF_STEREO_COUNT>
0

> <PUBCHEM_BOND_UDEF_STEREO_COUNT>
0

> <PUBCHEM_ISOTOPIC_ATOM_COUNT>
0

> <PUBCHEM_COMPONENT_COUNT>
1

> <PUBCHEM_CACTVS_TAUTO_COUNT>
-1

> <PUBCHEM_COORDINATE_TYPE>
1
5
255

> <PUBCHEM_BONDANNOTATIONS>
13  15  8
13  17  8
14  16  8
15  16  8
15  18  8
17  20  8
18  21  8
19  22  8
20  21  8
22  24  8
25  30  8
25  31  8
26  28  8
26  32  8
28  31  8
3  13  8
3  14  8
30  32  8
4  19  8
4  23  8
5  23  8
5  24  8

$$$$
67462786
  -OEChem-11282412102D

 63 66  0     0  0  0  0  0  0999 V2000
    2.8660    0.2500    0.0000 O   0  0  0  0  0  0  0  0  0  0  0  0
    4.5981    3.2500    0.0000 O   0  0  0  0  0  0  0  0  0  0  0  0
    6.3301    0.2500    0.0000 N   0  0  0  0  0  0  0  0  0  0  0  0
    5.4641   -2.2500    0.0000 N   0  0  0  0  0  0  0  0  0  0  0  0
    9.8222    0.2153    0.0000 N   0  0  0  0  0  0  0  0  0  0  0  0
    9.8222    2.2847    0.0000 N   0  0  0  0  0  0  0  0  0  0  0  0
   12.6703   -0.9807    0.0000 N   0  0  0  0  0  0  0  0  0  0  0  0
   13.1737   -0.1167    0.0000 N   0  0  0  0  0  0  0  0  0  0  0  0
    6.3301   -0.7500    0.0000 C   0  0  0  0  0  0  0  0  0  0  0  0
    5.4641   -1.2500    0.0000 C   0  0  0  0  0  0  0  0  0  0  0  0
    4.5981   -2.7500    0.0000 C   0  0  0  0  0  0  0  0  0  0  0  0
    7.1962    0.7500    0.0000 C   0  0  0  0  0  0  0  0  0  0  0  0
    5.4641    0.7500    0.0000 C   0  0  0  0  0  0  0  0  0  0  0  0
    8.0622    0.2500    0.0000 C   0  0  0  0  0  0  0  0  0  0  0  0
    7.1962    1.7500    0.0000 C   0  0  0  0  0  0  0  0  0  0  0  0
    4.5981   -3.7500    0.0000 C   0  0  0  0  0  0  0  0  0  0  0  0
    3.7320   -2.2500    0.0000 C   0  0  0  0  0  0  0  0  0  0  0  0
    8.9282    0.7500    0.0000 C   0  0  0  0  0  0  0  0  0  0  0  0
    5.4641    1.7500    0.0000 C   0  0  0  0  0  0  0  0  0  0  0  0
    4.5981    0.2500    0.0000 C   0  0  0  0  0  0  0  0  0  0  0  0
    8.9282    1.7500    0.0000 C   0  0  0  0  0  0  0  0  0  0  0  0
    8.0622    2.2500    0.0000 C   0  0  0  0  0  0  0  0  0  0  0  0
    3.7320    0.7500    0.0000 C   0  0  0  0  0  0  0  0  0  0  0  0
    4.5981    2.2500    0.0000 C   0  0  0  0  0  0  0  0  0  0  0  0
    3.7320    1.7500    0.0000 C   0  0  0  0  0  0  0  0  0  0  0  0
   10.7282    0.7292    0.0000 C   0  0  0  0  0  0  0  0  0  0  0  0
   10.7282    1.7708    0.0000 C   0  0  0  0  0  0  0  0  0  0  0  0
   11.5923    0.2258    0.0000 C   0  0  0  0  0  0  0  0  0  0  0  0
   11.6930   -0.7691    0.0000 C   0  0  0  0  0  0  0  0  0  0  0  0
   12.5074    0.6291    0.0000 C   0  0  0  0  0  0  0  0  0  0  0  0
    2.0000    0.7500    0.0000 C   0  0  0  0  0  0  0  0  0  0  0  0
    3.7320    3.7500    0.0000 C   0  0  0  0  0  0  0  0  0  0  0  0
   13.0735   -1.8958    0.0000 C   0  0  0  0  0  0  0  0  0  0  0  0
    6.5422   -1.3326    0.0000 H   0  0  0  0  0  0  0  0  0  0  0  0
    6.9407   -0.6423    0.0000 H   0  0  0  0  0  0  0  0  0  0  0  0
    5.2520   -0.6674    0.0000 H   0  0  0  0  0  0  0  0  0  0  0  0
    4.8535   -1.3577    0.0000 H   0  0  0  0  0  0  0  0  0  0  0  0
    4.5981   -2.1300    0.0000 H   0  0  0  0  0  0  0  0  0  0  0  0
    6.0010   -2.5600    0.0000 H   0  0  0  0  0  0  0  0  0  0  0  0
    8.0622   -0.3700    0.0000 H   0  0  0  0  0  0  0  0  0  0  0  0
    6.6592    2.0600    0.0000 H   0  0  0  0  0  0  0  0  0  0  0  0
    3.9781   -3.7500    0.0000 H   0  0  0  0  0  0  0  0  0  0  0  0
    4.5981   -4.3700    0.0000 H   0  0  0  0  0  0  0  0  0  0  0  0
    5.2181   -3.7500    0.0000 H   0  0  0  0  0  0  0  0  0  0  0  0
    4.0420   -1.7131    0.0000 H   0  0  0  0  0  0  0  0  0  0  0  0
    3.1951   -1.9400    0.0000 H   0  0  0  0  0  0  0  0  0  0  0  0
    3.4220   -2.7869    0.0000 H   0  0  0  0  0  0  0  0  0  0  0  0
    6.0010    2.0600    0.0000 H   0  0  0  0  0  0  0  0  0  0  0  0
    4.5981   -0.3700    0.0000 H   0  0  0  0  0  0  0  0  0  0  0  0
    8.0622    2.8700    0.0000 H   0  0  0  0  0  0  0  0  0  0  0  0
    3.1951    2.0600    0.0000 H   0  0  0  0  0  0  0  0  0  0  0  0
   11.2639    2.0829    0.0000 H   0  0  0  0  0  0  0  0  0  0  0  0
   11.2307   -1.1822    0.0000 H   0  0  0  0  0  0  0  0  0  0  0  0
   12.6387    1.2350    0.0000 H   0  0  0  0  0  0  0  0  0  0  0  0
    2.3100    1.2869    0.0000 H   0  0  0  0  0  0  0  0  0  0  0  0
    1.4631    1.0600    0.0000 H   0  0  0  0  0  0  0  0  0  0  0  0
    1.6900    0.2131    0.0000 H   0  0  0  0  0  0  0  0  0  0  0  0
    4.0420    4.2869    0.0000 H   0  0  0  0  0  0  0  0  0  0  0  0
    3.1951    4.0600    0.0000 H   0  0  0  0  0  0  0  0  0  0  0  0
    3.4220    3.2131    0.0000 H   0  0  0  0  0  0  0  0  0  0  0  0
   12.5062   -2.1458    0.0000 H   0  0  0  0  0  0  0  0  0  0  0  0
   13.3235   -2.4632    0.0000 H   0  0  0  0  0  0  0  0  0  0  0  0
   13.6409   -1.6459    0.0000 H   0  0  0  0  0  0  0  0  0  0  0  0
  1 23  1  0  0  0  0
  1 31  1  0  0  0  0
  2 24  1  0  0  0  0
  2 32  1  0  0  0  0
  3  9  1  0  0  0  0
  3 12  1  0  0  0  0
  3 13  1  0  0  0  0
  4 10  1  0  0  0  0
  4 11  1  0  0  0  0
  4 39  1  0  0  0  0
  5 18  2  0  0  0  0
  5 26  1  0  0  0  0
  6 21  2  0  0  0  0
  6 27  1  0  0  0  0
  7  8  1  0  0  0  0
  7 29  1  0  0  0  0
  7 33  1  0  0  0  0
  8 30  2  0  0  0  0
  9 10  1  0  0  0  0
  9 34  1  0  0  0  0
  9 35  1  0  0  0  0
 10 36  1  0  0  0  0
 10 37  1  0  0  0  0
 11 16  1  0  0  0  0
 11 17  1  0  0  0  0
 11 38  1  0  0  0  0
 12 14  2  0  0  0  0
 12 15  1  0  0  0  0
 13 19  2  0  0  0  0
 13 20  1  0  0  0  0
 14 18  1  0  0  0  0
 14 40  1  0  0  0  0
 15 22  2  0  0  0  0
 15 41  1  0  0  0  0
 16 42  1  0  0  0  0
 16 43  1  0  0  0  0
 16 44  1  0  0  0  0
 17 45  1  0  0  0  0
 17 46  1  0  0  0  0
 17 47  1  0  0  0  0
 18 21  1  0  0  0  0
 19 24  1  0  0  0  0
 19 48  1  0  0  0  0
 20 23  2  0  0  0  0
 20 49  1  0  0  0  0
 21 22  1  0  0  0  0
 22 50  1  0  0  0  0
 23 25  1  0  0  0  0
 24 25  2  0  0  0  0
 25 51  1  0  0  0  0
 26 27  2  0  0  0  0
 26 28  1  0  0  0  0
 27 52  1  0  0  0  0
 28 29  2  0  0  0  0
 28 30  1  0  0  0  0
 29 53  1  0  0  0  0
 30 54  1  0  0  0  0
 31 55  1  0  0  0  0
 31 56  1  0  0  0  0
 31 57  1  0  0  0  0
 32 58  1  0  0  0  0
 32 59  1  0  0  0  0
 32 60  1  0  0  0  0
 33 61  1  0  0  0  0
 33 62  1  0  0  0  0
 33 63  1  0  0  0  0
M  END
> <PUBCHEM_COMPOUND_CID>
67462786

> <PUBCHEM_COMPOUND_CANONICALIZED>
1

> <PUBCHEM_CACTVS_COMPLEXITY>
583

> <PUBCHEM_CACTVS_HBOND_ACCEPTOR>
7

> <PUBCHEM_CACTVS_HBOND_DONOR>
1

> <PUBCHEM_CACTVS_ROTATABLE_BOND>
9

> <PUBCHEM_CACTVS_SUBSKEYS>
AAADceB7sAAAAAAAAAAAAAAAAAAAAWAAAAA8YIAAAAAAAACx/AAAHgAYAAAADCzBngY+xrPIFACiAzRnRACSjCQxsiAY2KA+fJgMZ+LE8duUtChn2B3I6AeQcA8IAACACgQAACAAAQAUCAAAQAAAAAAAAA==

> <PUBCHEM_IUPAC_OPENEYE_NAME>
N'-(3,5-dimethoxyphenyl)-N-isopropyl-N'-[3-(1-methylpyrazol-4-yl)quinoxalin-6-yl]ethane-1,2-diamine

> <PUBCHEM_IUPAC_CAS_NAME>
N'-(3,5-dimethoxyphenyl)-N'-[3-(1-methyl-4-pyrazolyl)-6-quinoxalinyl]-N-propan-2-ylethane-1,2-diamine

> <PUBCHEM_IUPAC_NAME_MARKUP>
<I>N</I>&apos;-(3,5-dimethoxyphenyl)-<I>N</I>&apos;-[3-(1-methylpyrazol-4-yl)quinoxalin-6-yl]-<I>N</I>-propan-2-ylethane-1,2-diamine

> <PUBCHEM_IUPAC_NAME>
N'-(3,5-dimethoxyphenyl)-N'-[3-(1-methylpyrazol-4-yl)quinoxalin-6-yl]-N-propan-2-ylethane-1,2-diamine

> <PUBCHEM_IUPAC_SYSTEMATIC_NAME>
N'-(3,5-dimethoxyphenyl)-N'-[3-(1-methylpyrazol-4-yl)quinoxalin-6-yl]-N-propan-2-yl-ethane-1,2-diamine

> <PUBCHEM_IUPAC_TRADITIONAL_NAME>
(3,5-dimethoxyphenyl)-[2-(isopropylamino)ethyl]-[3-(1-methylpyrazol-4-yl)quinoxalin-6-yl]amine

> <PUBCHEM_IUPAC_INCHI>
InChI=1S/C25H30N6O2/c1-17(2)26-8-9-31(20-10-21(32-4)13-22(11-20)33-5)19-6-7-23-24(12-19)29-25(15-27-23)18-14-28-30(3)16-18/h6-7,10-17,26H,8-9H2,1-5H3

> <PUBCHEM_IUPAC_INCHIKEY>
OLAHOMJCDNXHFI-UHFFFAOYSA-N

> <PUBCHEM_XLOGP3_AA>
3.2

> <PUBCHEM_EXACT_MASS>
446.24302422

> <PUBCHEM_MOLECULAR_FORMULA>
C25H30N6O2

> <PUBCHEM_MOLECULAR_WEIGHT>
446.5

> <PUBCHEM_OPENEYE_CAN_SMILES>
CC(C)NCCN(C1=CC2=NC(=CN=C2C=C1)C3=CN(N=C3)C)C4=CC(=CC(=C4)OC)OC

> <PUBCHEM_OPENEYE_ISO_SMILES>
CC(C)NCCN(C1=CC2=NC(=CN=C2C=C1)C3=CN(N=C3)C)C4=CC(=CC(=C4)OC)OC

> <PUBCHEM_CACTVS_TPSA>
77.3

> <PUBCHEM_MONOISOTOPIC_WEIGHT>
446.24302422

> <PUBCHEM_TOTAL_CHARGE>
0

> <PUBCHEM_HEAVY_ATOM_COUNT>
33

> <PUBCHEM_ATOM_DEF_STEREO_COUNT>
0

> <PUBCHEM_ATOM_UDEF_STEREO_COUNT>
0

> <PUBCHEM_BOND_DEF_STEREO_COUNT>
0

> <PUBCHEM_BOND_UDEF_STEREO_COUNT>
0

> <PUBCHEM_ISOTOPIC_ATOM_COUNT>
0

> <PUBCHEM_COMPONENT_COUNT>
1

> <PUBCHEM_CACTVS_TAUTO_COUNT>
-1

> <PUBCHEM_COORDINATE_TYPE>
1
5
255

> <PUBCHEM_BONDANNOTATIONS>
12  14  8
12  15  8
13  19  8
13  20  8
14  18  8
15  22  8
18  21  8
19  24  8
20  23  8
21  22  8
23  25  8
24  25  8
26  27  8
28  29  8
28  30  8
5  18  8
5  26  8
6  21  8
6  27  8
7  29  8
7  8  8
8  30  8

$$$$
58557659
  -OEChem-11282412102D

 46 49  0     1  0  0  0  0  0999 V2000
    2.5045   -2.8285    0.0000 F   0  0  0  0  0  0  0  0  0  0  0  0
    2.0000   -4.1496    0.0000 F   0  0  0  0  0  0  0  0  0  0  0  0
    3.3212   -4.6542    0.0000 F   0  0  0  0  0  0  0  0  0  0  0  0
    5.6514   -2.5164    0.0000 O   0  0  0  0  0  0  0  0  0  0  0  0
    4.9441   -0.9353    0.0000 N   0  0  0  0  0  0  0  0  0  0  0  0
    6.0583    2.2601    0.0000 N   0  0  0  0  0  0  0  0  0  0  0  0
    7.6614    2.0930    0.0000 N   0  0  0  0  0  0  0  0  0  0  0  0
    3.9285   -2.3383    0.0000 N   0  0  0  0  0  0  0  0  0  0  0  0
    6.0583    4.2601    0.0000 N   0  0  0  0  0  0  0  0  0  0  0  0
    4.2461    4.0648    0.0000 N   0  0  0  0  0  0  0  0  0  0  0  0
    4.6050    0.6468    0.0000 C   0  0  1  0  0  0  0  0  0  0  0  0
    5.5997    0.5440    0.0000 C   0  0  2  0  0  0  0  0  0  0  0  0
    4.1998   -0.2674    0.0000 C   0  0  0  0  0  0  0  0  0  0  0  0
    5.8093   -0.4338    0.0000 C   0  0  0  0  0  0  0  0  0  0  0  0
    4.1035    1.5120    0.0000 C   0  0  0  0  0  0  0  0  0  0  0  0
    6.2675    1.2883    0.0000 C   0  0  0  0  0  0  0  0  0  0  0  0
    4.8413   -1.9300    0.0000 C   0  0  0  0  0  0  0  0  0  0  0  0
    3.1035    1.5102    0.0000 C   0  0  0  0  0  0  0  0  0  0  0  0
    7.2563    1.1852    0.0000 C   0  0  0  0  0  0  0  0  0  0  0  0
    6.9244    2.7601    0.0000 C   0  0  0  0  0  0  0  0  0  0  0  0
    5.1923    2.7601    0.0000 C   0  0  0  0  0  0  0  0  0  0  0  0
    5.1923    3.7601    0.0000 C   0  0  0  0  0  0  0  0  0  0  0  0
    6.9244    3.7601    0.0000 C   0  0  0  0  0  0  0  0  0  0  0  0
    4.2461    2.4554    0.0000 C   0  0  0  0  0  0  0  0  0  0  0  0
    3.8257   -3.3330    0.0000 C   0  0  0  0  0  0  0  0  0  0  0  0
    3.6625    3.2601    0.0000 C   0  0  0  0  0  0  0  0  0  0  0  0
    2.9128   -3.7413    0.0000 C   0  0  0  0  0  0  0  0  0  0  0  0
    4.9418    1.1674    0.0000 H   0  0  0  0  0  0  0  0  0  0  0  0
    5.2937    1.3370    0.0000 H   0  0  0  0  0  0  0  0  0  0  0  0
    3.6624    0.0416    0.0000 H   0  0  0  0  0  0  0  0  0  0  0  0
    3.8363   -0.7697    0.0000 H   0  0  0  0  0  0  0  0  0  0  0  0
    6.0624   -0.9998    0.0000 H   0  0  0  0  0  0  0  0  0  0  0  0
    6.3986   -0.2412    0.0000 H   0  0  0  0  0  0  0  0  0  0  0  0
    4.6857    1.7250    0.0000 H   0  0  0  0  0  0  0  0  0  0  0  0
    3.9948    2.1224    0.0000 H   0  0  0  0  0  0  0  0  0  0  0  0
    3.1024    2.1302    0.0000 H   0  0  0  0  0  0  0  0  0  0  0  0
    2.4835    1.5092    0.0000 H   0  0  0  0  0  0  0  0  0  0  0  0
    3.1046    0.8902    0.0000 H   0  0  0  0  0  0  0  0  0  0  0  0
    7.5663    0.6483    0.0000 H   0  0  0  0  0  0  0  0  0  0  0  0
    3.4263   -1.9748    0.0000 H   0  0  0  0  0  0  0  0  0  0  0  0
    7.4613    4.0701    0.0000 H   0  0  0  0  0  0  0  0  0  0  0  0
    4.0535    1.8661    0.0000 H   0  0  0  0  0  0  0  0  0  0  0  0
    3.9767   -3.9343    0.0000 H   0  0  0  0  0  0  0  0  0  0  0  0
    4.4441   -3.2887    0.0000 H   0  0  0  0  0  0  0  0  0  0  0  0
    4.0535    4.6542    0.0000 H   0  0  0  0  0  0  0  0  0  0  0  0
    3.0425    3.2601    0.0000 H   0  0  0  0  0  0  0  0  0  0  0  0
  1 27  1  0  0  0  0
  2 27  1  0  0  0  0
  3 27  1  0  0  0  0
  4 17  2  0  0  0  0
  5 13  1  0  0  0  0
  5 14  1  0  0  0  0
  5 17  1  0  0  0  0
  6 16  1  0  0  0  0
  6 20  1  0  0  0  0
  6 21  1  0  0  0  0
  7 19  1  0  0  0  0
  7 20  2  0  0  0  0
  8 17  1  0  0  0  0
  8 25  1  0  0  0  0
  8 40  1  0  0  0  0
  9 22  1  0  0  0  0
  9 23  2  0  0  0  0
 10 22  1  0  0  0  0
 10 26  1  0  0  0  0
 10 45  1  0  0  0  0
 11 12  1  0  0  0  0
 11 13  1  0  0  0  0
 11 15  1  1  0  0  0
 11 28  1  0  0  0  0
 12 14  1  0  0  0  0
 12 16  1  0  0  0  0
 12 29  1  6  0  0  0
 13 30  1  0  0  0  0
 13 31  1  0  0  0  0
 14 32  1  0  0  0  0
 14 33  1  0  0  0  0
 15 18  1  0  0  0  0
 15 34  1  0  0  0  0
 15 35  1  0  0  0  0
 16 19  2  0  0  0  0
 18 36  1  0  0  0  0
 18 37  1  0  0  0  0
 18 38  1  0  0  0  0
 19 39  1  0  0  0  0
 20 23  1  0  0  0  0
 21 22  2  0  0  0  0
 21 24  1  0  0  0  0
 23 41  1  0  0  0  0
 24 26  2  0  0  0  0
 24 42  1  0  0  0  0
 25 27  1  0  0  0  0
 25 43  1  0  0  0  0
 25 44  1  0  0  0  0
 26 46  1  0  0  0  0
M  END
> <PUBCHEM_COMPOUND_CID>
58557659

> <PUBCHEM_COMPOUND_CANONICALIZED>
1

> <PUBCHEM_CACTVS_COMPLEXITY>
561

> <PUBCHEM_CACTVS_HBOND_ACCEPTOR>
6

> <PUBCHEM_CACTVS_HBOND_DONOR>
2

> <PUBCHEM_CACTVS_ROTATABLE_BOND>
3

> <PUBCHEM_CACTVS_SUBSKEYS>
AAADceB7oYAAAAAAAAAAAAAAAAAAAWLFgAAsAAAAAAAAAFgB+AAAHwAQAAAADQjBFxQ/8L/NmACoATZndACCgC2xEqAJ2aA4dJiIaMJA2cGUBAhIlgLAQCEQAAAOgAAAAAAAAAAAAAAAAAAAAAAAAAAAAA==

> <PUBCHEM_IUPAC_OPENEYE_NAME>
(3S,4R)-3-ethyl-4-(1,5,7,10-tetrazatricyclo[7.3.0.02,6]dodeca-2(6),3,7,9,11-pentaen-12-yl)-N-(2,2,2-trifluoroethyl)pyrrolidine-1-carboxamide

> <PUBCHEM_IUPAC_CAS_NAME>
(3S,4R)-3-ethyl-4-(1,5,7,10-tetrazatricyclo[7.3.0.02,6]dodeca-2(6),3,7,9,11-pentaen-12-yl)-N-(2,2,2-trifluoroethyl)-1-pyrrolidinecarboxamide

> <PUBCHEM_IUPAC_NAME_MARKUP>
(3<I>S</I>,4<I>R</I>)-3-ethyl-4-(1,5,7,10-tetrazatricyclo[7.3.0.0<SUP>2,6</SUP>]dodeca-2(6),3,7,9,11-pentaen-12-yl)-<I>N</I>-(2,2,2-trifluoroethyl)pyrrolidine-1-carboxamide

> <PUBCHEM_IUPAC_NAME>
(3S,4R)-3-ethyl-4-(1,5,7,10-tetrazatricyclo[7.3.0.02,6]dodeca-2(6),3,7,9,11-pentaen-12-yl)-N-(2,2,2-trifluoroethyl)pyrrolidine-1-carboxamide

> <PUBCHEM_IUPAC_SYSTEMATIC_NAME>
(3S,4R)-3-ethyl-4-(1,5,7,10-tetrazatricyclo[7.3.0.02,6]dodeca-2(6),3,7,9,11-pentaen-12-yl)-N-[2,2,2-tris(fluoranyl)ethyl]pyrrolidine-1-carboxamide

> <PUBCHEM_IUPAC_TRADITIONAL_NAME>
(3S,4R)-3-ethyl-4-(1,5,7,10-tetrazatricyclo[7.3.0.02,6]dodeca-2(6),3,7,9,11-pentaen-12-yl)-N-(2,2,2-trifluoroethyl)pyrrolidine-1-carboxamide

> <PUBCHEM_IUPAC_INCHI>
InChI=1S/C17H19F3N6O/c1-2-10-7-25(16(27)24-9-17(18,19)20)8-11(10)13-5-22-14-6-23-15-12(26(13)14)3-4-21-15/h3-6,10-11,21H,2,7-9H2,1H3,(H,24,27)/t10-,11+/m1/s1

> <PUBCHEM_IUPAC_INCHIKEY>
WYQFJHHDOKWSHR-MNOVXSKESA-N

> <PUBCHEM_XLOGP3_AA>
2.7

> <PUBCHEM_EXACT_MASS>
380.15724374

> <PUBCHEM_MOLECULAR_FORMULA>
C17H19F3N6O

> <PUBCHEM_MOLECULAR_WEIGHT>
380.4

> <PUBCHEM_OPENEYE_CAN_SMILES>
CCC1CN(CC1C2=CN=C3N2C4=C(NC=C4)N=C3)C(=O)NCC(F)(F)F

> <PUBCHEM_OPENEYE_ISO_SMILES>
CC[C@@H]1CN(C[C@@H]1C2=CN=C3N2C4=C(NC=C4)N=C3)C(=O)NCC(F)(F)F

> <PUBCHEM_CACTVS_TPSA>
78.3

> <PUBCHEM_MONOISOTOPIC_WEIGHT>
380.15724374

> <PUBCHEM_TOTAL_CHARGE>
0

> <PUBCHEM_HEAVY_ATOM_COUNT>
27

> <PUBCHEM_ATOM_DEF_STEREO_COUNT>
2

> <PUBCHEM_ATOM_UDEF_STEREO_COUNT>
0

> <PUBCHEM_BOND_DEF_STEREO_COUNT>
0

> <PUBCHEM_BOND_UDEF_STEREO_COUNT>
0

> <PUBCHEM_ISOTOPIC_ATOM_COUNT>
0

> <PUBCHEM_COMPONENT_COUNT>
1

> <PUBCHEM_CACTVS_TAUTO_COUNT>
6

> <PUBCHEM_COORDINATE_TYPE>
1
5
255

> <PUBCHEM_BONDANNOTATIONS>
10  22  8
10  26  8
11  15  5
12  29  6
16  19  8
20  23  8
21  22  8
21  24  8
24  26  8
6  16  8
6  20  8
6  21  8
7  19  8
7  20  8
9  22  8
9  23  8

$$$$
11626560
  -OEChem-11282412102D

 52 55  0     1  0  0  0  0  0999 V2000
    7.4888    3.5047    0.0000 Cl  0  0  0  0  0  0  0  0  0  0  0  0
    4.0246    3.5047    0.0000 Cl  0  0  0  0  0  0  0  0  0  0  0  0
    7.4888    5.5047    0.0000 F   0  0  0  0  0  0  0  0  0  0  0  0
    6.6227    2.0047    0.0000 O   0  0  0  0  0  0  0  0  0  0  0  0
    3.8080   -2.1977    0.0000 N   0  0  0  0  0  0  0  0  0  0  0  0
    2.5878   -4.9383    0.0000 N   0  0  0  0  0  0  0  0  0  0  0  0
    3.3080   -1.3317    0.0000 N   0  0  0  0  0  0  0  0  0  0  0  0
    7.4888   -0.4953    0.0000 N   0  0  0  0  0  0  0  0  0  0  0  0
    8.3548    1.0047    0.0000 N   0  0  0  0  0  0  0  0  0  0  0  0
    3.4013   -3.1112    0.0000 C   0  0  0  0  0  0  0  0  0  0  0  0
    2.4067   -3.2158    0.0000 C   0  0  0  0  0  0  0  0  0  0  0  0
    3.9890   -3.9203    0.0000 C   0  0  0  0  0  0  0  0  0  0  0  0
    2.0000   -4.1293    0.0000 C   0  0  0  0  0  0  0  0  0  0  0  0
    3.5823   -4.8338    0.0000 C   0  0  0  0  0  0  0  0  0  0  0  0
    4.7861   -1.9898    0.0000 C   0  0  0  0  0  0  0  0  0  0  0  0
    4.8907   -0.9953    0.0000 C   0  0  0  0  0  0  0  0  0  0  0  0
    3.9771   -0.5885    0.0000 C   0  0  0  0  0  0  0  0  0  0  0  0
    5.7567   -0.4953    0.0000 C   0  0  0  0  0  0  0  0  0  0  0  0
    5.7567    0.5047    0.0000 C   0  0  0  0  0  0  0  0  0  0  0  0
    6.6227   -0.9953    0.0000 C   0  0  0  0  0  0  0  0  0  0  0  0
    6.6227    1.0047    0.0000 C   0  0  0  0  0  0  0  0  0  0  0  0
    5.7567    2.5047    0.0000 C   0  0  1  0  0  0  0  0  0  0  0  0
    7.4888    0.5047    0.0000 C   0  0  0  0  0  0  0  0  0  0  0  0
    5.7567    3.5047    0.0000 C   0  0  0  0  0  0  0  0  0  0  0  0
    4.8907    2.0047    0.0000 C   0  0  0  0  0  0  0  0  0  0  0  0
    6.6227    4.0047    0.0000 C   0  0  0  0  0  0  0  0  0  0  0  0
    4.8907    4.0047    0.0000 C   0  0  0  0  0  0  0  0  0  0  0  0
    6.6227    5.0047    0.0000 C   0  0  0  0  0  0  0  0  0  0  0  0
    4.8907    5.0047    0.0000 C   0  0  0  0  0  0  0  0  0  0  0  0
    5.7567    5.5047    0.0000 C   0  0  0  0  0  0  0  0  0  0  0  0
    3.0368   -2.6096    0.0000 H   0  0  0  0  0  0  0  0  0  0  0  0
    2.4500   -2.5973    0.0000 H   0  0  0  0  0  0  0  0  0  0  0  0
    1.8052   -3.0658    0.0000 H   0  0  0  0  0  0  0  0  0  0  0  0
    4.5030   -4.2670    0.0000 H   0  0  0  0  0  0  0  0  0  0  0  0
    4.4197   -3.4743    0.0000 H   0  0  0  0  0  0  0  0  0  0  0  0
    1.4860   -3.7826    0.0000 H   0  0  0  0  0  0  0  0  0  0  0  0
    1.5693   -4.5753    0.0000 H   0  0  0  0  0  0  0  0  0  0  0  0
    3.5391   -5.4523    0.0000 H   0  0  0  0  0  0  0  0  0  0  0  0
    4.1839   -4.9838    0.0000 H   0  0  0  0  0  0  0  0  0  0  0  0
    2.3356   -5.5047    0.0000 H   0  0  0  0  0  0  0  0  0  0  0  0
    5.2469   -2.4046    0.0000 H   0  0  0  0  0  0  0  0  0  0  0  0
    3.8482    0.0179    0.0000 H   0  0  0  0  0  0  0  0  0  0  0  0
    5.2198    0.8147    0.0000 H   0  0  0  0  0  0  0  0  0  0  0  0
    6.6227   -1.6153    0.0000 H   0  0  0  0  0  0  0  0  0  0  0  0
    5.7567    1.8847    0.0000 H   0  0  0  0  0  0  0  0  0  0  0  0
    4.5807    2.5417    0.0000 H   0  0  0  0  0  0  0  0  0  0  0  0
    4.3537    1.6947    0.0000 H   0  0  0  0  0  0  0  0  0  0  0  0
    5.2007    1.4678    0.0000 H   0  0  0  0  0  0  0  0  0  0  0  0
    4.3537    5.3147    0.0000 H   0  0  0  0  0  0  0  0  0  0  0  0
    8.8917    0.6947    0.0000 H   0  0  0  0  0  0  0  0  0  0  0  0
    8.3548    1.6247    0.0000 H   0  0  0  0  0  0  0  0  0  0  0  0
    5.7567    6.1247    0.0000 H   0  0  0  0  0  0  0  0  0  0  0  0
  1 26  1  0  0  0  0
  2 27  1  0  0  0  0
  3 28  1  0  0  0  0
  4 21  1  0  0  0  0
 22  4  1  6  0  0  0
  5  7  1  0  0  0  0
  5 10  1  0  0  0  0
  5 15  1  0  0  0  0
  6 13  1  0  0  0  0
  6 14  1  0  0  0  0
  6 40  1  0  0  0  0
  7 17  2  0  0  0  0
  8 20  2  0  0  0  0
  8 23  1  0  0  0  0
  9 23  1  0  0  0  0
  9 50  1  0  0  0  0
  9 51  1  0  0  0  0
 10 11  1  0  0  0  0
 10 12  1  0  0  0  0
 10 31  1  0  0  0  0
 11 13  1  0  0  0  0
 11 32  1  0  0  0  0
 11 33  1  0  0  0  0
 12 14  1  0  0  0  0
 12 34  1  0  0  0  0
 12 35  1  0  0  0  0
 13 36  1  0  0  0  0
 13 37  1  0  0  0  0
 14 38  1  0  0  0  0
 14 39  1  0  0  0  0
 15 16  2  0  0  0  0
 15 41  1  0  0  0  0
 16 17  1  0  0  0  0
 16 18  1  0  0  0  0
 17 42  1  0  0  0  0
 18 19  2  0  0  0  0
 18 20  1  0  0  0  0
 19 21  1  0  0  0  0
 19 43  1  0  0  0  0
 20 44  1  0  0  0  0
 21 23  2  0  0  0  0
 22 24  1  0  0  0  0
 22 25  1  0  0  0  0
 22 45  1  0  0  0  0
 24 26  1  0  0  0  0
 24 27  2  0  0  0  0
 25 46  1  0  0  0  0
 25 47  1  0  0  0  0
 25 48  1  0  0  0  0
 26 28  2  0  0  0  0
 27 29  1  0  0  0  0
 28 30  1  0  0  0  0
 29 30  2  0  0  0  0
 29 49  1  0  0  0  0
 30 52  1  0  0  0  0
M  END
> <PUBCHEM_COMPOUND_CID>
11626560

> <PUBCHEM_COMPOUND_CANONICALIZED>
1

> <PUBCHEM_CACTVS_COMPLEXITY>
558

> <PUBCHEM_CACTVS_HBOND_ACCEPTOR>
6

> <PUBCHEM_CACTVS_HBOND_DONOR>
2

> <PUBCHEM_CACTVS_ROTATABLE_BOND>
5

> <PUBCHEM_CACTVS_SUBSKEYS>
AAADceB7oQAGAAAAAAAAAAAAAAAAAWAAAAA8WIAAAAAAAAAB8AAAHwIYAAAADD7hmi4/tpLIFACiAjJnZASSjCkx5SAY2KAvTpiOJuLF89uHvCjk2BPY6Cew0KIOgAAAAACBAAAAAAAAAQIAAAAAAAAAAA==

> <PUBCHEM_IUPAC_OPENEYE_NAME>
3-[(1R)-1-(2,6-dichloro-3-fluoro-phenyl)ethoxy]-5-[1-(4-piperidyl)pyrazol-4-yl]pyridin-2-amine

> <PUBCHEM_IUPAC_CAS_NAME>
3-[(1R)-1-(2,6-dichloro-3-fluorophenyl)ethoxy]-5-[1-(4-piperidinyl)-4-pyrazolyl]-2-pyridinamine

> <PUBCHEM_IUPAC_NAME_MARKUP>
3-[(1<I>R</I>)-1-(2,6-dichloro-3-fluorophenyl)ethoxy]-5-(1-piperidin-4-ylpyrazol-4-yl)pyridin-2-amine

> <PUBCHEM_IUPAC_NAME>
3-[(1R)-1-(2,6-dichloro-3-fluorophenyl)ethoxy]-5-(1-piperidin-4-ylpyrazol-4-yl)pyridin-2-amine

> <PUBCHEM_IUPAC_SYSTEMATIC_NAME>
3-[(1R)-1-[2,6-bis(chloranyl)-3-fluoranyl-phenyl]ethoxy]-5-(1-piperidin-4-ylpyrazol-4-yl)pyridin-2-amine

> <PUBCHEM_IUPAC_TRADITIONAL_NAME>
[3-[(1R)-1-(2,6-dichloro-3-fluoro-phenyl)ethoxy]-5-[1-(4-piperidyl)pyrazol-4-yl]-2-pyridyl]amine

> <PUBCHEM_IUPAC_INCHI>
InChI=1S/C21H22Cl2FN5O/c1-12(19-16(22)2-3-17(24)20(19)23)30-18-8-13(9-27-21(18)25)14-10-28-29(11-14)15-4-6-26-7-5-15/h2-3,8-12,15,26H,4-7H2,1H3,(H2,25,27)/t12-/m1/s1

> <PUBCHEM_IUPAC_INCHIKEY>
KTEIFNKAUNYNJU-GFCCVEGCSA-N

> <PUBCHEM_XLOGP3_AA>
3.7

> <PUBCHEM_EXACT_MASS>
449.1185439

> <PUBCHEM_MOLECULAR_FORMULA>
C21H22Cl2FN5O

> <PUBCHEM_MOLECULAR_WEIGHT>
450.3

> <PUBCHEM_OPENEYE_CAN_SMILES>
CC(C1=C(C=CC(=C1Cl)F)Cl)OC2=C(N=CC(=C2)C3=CN(N=C3)C4CCNCC4)N

> <PUBCHEM_OPENEYE_ISO_SMILES>
C[C@H](C1=C(C=CC(=C1Cl)F)Cl)OC2=C(N=CC(=C2)C3=CN(N=C3)C4CCNCC4)N

> <PUBCHEM_CACTVS_TPSA>
78

> <PUBCHEM_MONOISOTOPIC_WEIGHT>
449.1185439

> <PUBCHEM_TOTAL_CHARGE>
0

> <PUBCHEM_HEAVY_ATOM_COUNT>
30

> <PUBCHEM_ATOM_DEF_STEREO_COUNT>
1

> <PUBCHEM_ATOM_UDEF_STEREO_COUNT>
0

> <PUBCHEM_BOND_DEF_STEREO_COUNT>
0

> <PUBCHEM_BOND_UDEF_STEREO_COUNT>
0

> <PUBCHEM_ISOTOPIC_ATOM_COUNT>
0

> <PUBCHEM_COMPONENT_COUNT>
1

> <PUBCHEM_CACTVS_TAUTO_COUNT>
-1

> <PUBCHEM_COORDINATE_TYPE>
1
5
255

> <PUBCHEM_BONDANNOTATIONS>
15  16  8
16  17  8
18  19  8
18  20  8
19  21  8
21  23  8
24  26  8
24  27  8
26  28  8
27  29  8
28  30  8
29  30  8
22  4  6
5  15  8
5  7  8
7  17  8
8  20  8
8  23  8

$$$$
9823820
  -OEChem-11282412102D

 49 52  0     0  0  0  0  0  0999 V2000
    8.0437    3.5272    0.0000 Cl  0  0  0  0  0  0  0  0  0  0  0  0
   10.6705    1.0574    0.0000 O   0  0  0  0  0  0  0  0  0  0  0  0
    6.3465    0.5074    0.0000 O   0  0  0  0  0  0  0  0  0  0  0  0
    2.8660   -2.5272    0.0000 O   0  0  0  0  0  0  0  0  0  0  0  0
    2.0000   -1.0272    0.0000 O   0  0  0  0  0  0  0  0  0  0  0  0
   11.5192    2.5673    0.0000 N   0  0  0  0  0  0  0  0  0  0  0  0
    9.7872    2.5473    0.0000 N   0  0  0  0  0  0  0  0  0  0  0  0
    6.3580   -2.5619    0.0000 N   0  0  0  0  0  0  0  0  0  0  0  0
    2.8660    0.4728    0.0000 N   0  0  0  0  0  0  0  0  0  0  0  0
   12.3909    2.0774    0.0000 C   0  0  0  0  0  0  0  0  0  0  0  0
   12.9009    1.2172    0.0000 C   0  0  0  0  0  0  0  0  0  0  0  0
   13.3908    2.0890    0.0000 C   0  0  0  0  0  0  0  0  0  0  0  0
   10.6590    2.0574    0.0000 C   0  0  0  0  0  0  0  0  0  0  0  0
    8.9270    2.0373    0.0000 C   0  0  0  0  0  0  0  0  0  0  0  0
    8.0553    2.5273    0.0000 C   0  0  0  0  0  0  0  0  0  0  0  0
    8.9386    1.0374    0.0000 C   0  0  0  0  0  0  0  0  0  0  0  0
    5.4641   -1.0272    0.0000 C   0  0  0  0  0  0  0  0  0  0  0  0
    7.2067    1.0174    0.0000 C   0  0  0  0  0  0  0  0  0  0  0  0
    6.3580   -0.4926    0.0000 C   0  0  0  0  0  0  0  0  0  0  0  0
    5.4641   -2.0272    0.0000 C   0  0  0  0  0  0  0  0  0  0  0  0
    7.1951    2.0173    0.0000 C   0  0  0  0  0  0  0  0  0  0  0  0
    8.0784    0.5274    0.0000 C   0  0  0  0  0  0  0  0  0  0  0  0
    4.5981   -0.5272    0.0000 C   0  0  0  0  0  0  0  0  0  0  0  0
    3.7320   -1.0272    0.0000 C   0  0  0  0  0  0  0  0  0  0  0  0
    3.7320   -2.0272    0.0000 C   0  0  0  0  0  0  0  0  0  0  0  0
    4.5981   -2.5272    0.0000 C   0  0  0  0  0  0  0  0  0  0  0  0
    7.2641   -1.0064    0.0000 C   0  0  0  0  0  0  0  0  0  0  0  0
    7.2641   -2.0480    0.0000 C   0  0  0  0  0  0  0  0  0  0  0  0
    2.8660   -0.5272    0.0000 C   0  0  0  0  0  0  0  0  0  0  0  0
    2.8660   -3.5272    0.0000 C   0  0  0  0  0  0  0  0  0  0  0  0
   12.5444    2.6781    0.0000 H   0  0  0  0  0  0  0  0  0  0  0  0
   12.4306    0.8132    0.0000 H   0  0  0  0  0  0  0  0  0  0  0  0
   13.3804    0.8242    0.0000 H   0  0  0  0  0  0  0  0  0  0  0  0
   13.9759    1.8836    0.0000 H   0  0  0  0  0  0  0  0  0  0  0  0
   13.4914    2.7007    0.0000 H   0  0  0  0  0  0  0  0  0  0  0  0
   11.5120    3.1873    0.0000 H   0  0  0  0  0  0  0  0  0  0  0  0
    9.7800    3.1673    0.0000 H   0  0  0  0  0  0  0  0  0  0  0  0
    9.4791    0.7336    0.0000 H   0  0  0  0  0  0  0  0  0  0  0  0
    6.6546    2.3211    0.0000 H   0  0  0  0  0  0  0  0  0  0  0  0
    8.0856   -0.0925    0.0000 H   0  0  0  0  0  0  0  0  0  0  0  0
    4.5981    0.0928    0.0000 H   0  0  0  0  0  0  0  0  0  0  0  0
    4.5981   -3.1472    0.0000 H   0  0  0  0  0  0  0  0  0  0  0  0
    7.7998   -0.6943    0.0000 H   0  0  0  0  0  0  0  0  0  0  0  0
    7.7998   -2.3601    0.0000 H   0  0  0  0  0  0  0  0  0  0  0  0
    2.2460   -3.5272    0.0000 H   0  0  0  0  0  0  0  0  0  0  0  0
    2.8660   -4.1472    0.0000 H   0  0  0  0  0  0  0  0  0  0  0  0
    3.4860   -3.5272    0.0000 H   0  0  0  0  0  0  0  0  0  0  0  0
    2.3291    0.7828    0.0000 H   0  0  0  0  0  0  0  0  0  0  0  0
    3.4030    0.7828    0.0000 H   0  0  0  0  0  0  0  0  0  0  0  0
  1 15  1  0  0  0  0
  2 13  2  0  0  0  0
  3 18  1  0  0  0  0
  3 19  1  0  0  0  0
  4 25  1  0  0  0  0
  4 30  1  0  0  0  0
  5 29  2  0  0  0  0
  6 10  1  0  0  0  0
  6 13  1  0  0  0  0
  6 36  1  0  0  0  0
  7 13  1  0  0  0  0
  7 14  1  0  0  0  0
  7 37  1  0  0  0  0
  8 20  2  0  0  0  0
  8 28  1  0  0  0  0
  9 29  1  0  0  0  0
  9 48  1  0  0  0  0
  9 49  1  0  0  0  0
 10 11  1  0  0  0  0
 10 12  1  0  0  0  0
 10 31  1  0  0  0  0
 11 12  1  0  0  0  0
 11 32  1  0  0  0  0
 11 33  1  0  0  0  0
 12 34  1  0  0  0  0
 12 35  1  0  0  0  0
 14 15  2  0  0  0  0
 14 16  1  0  0  0  0
 15 21  1  0  0  0  0
 16 22  2  0  0  0  0
 16 38  1  0  0  0  0
 17 19  2  0  0  0  0
 17 20  1  0  0  0  0
 17 23  1  0  0  0  0
 18 21  2  0  0  0  0
 18 22  1  0  0  0  0
 19 27  1  0  0  0  0
 20 26  1  0  0  0  0
 21 39  1  0  0  0  0
 22 40  1  0  0  0  0
 23 24  2  0  0  0  0
 23 41  1  0  0  0  0
 24 25  1  0  0  0  0
 24 29  1  0  0  0  0
 25 26  2  0  0  0  0
 26 42  1  0  0  0  0
 27 28  2  0  0  0  0
 27 43  1  0  0  0  0
 28 44  1  0  0  0  0
 30 45  1  0  0  0  0
 30 46  1  0  0  0  0
 30 47  1  0  0  0  0
M  END
> <PUBCHEM_COMPOUND_CID>
9823820

> <PUBCHEM_COMPOUND_CANONICALIZED>
1

> <PUBCHEM_CACTVS_COMPLEXITY>
634

> <PUBCHEM_CACTVS_HBOND_ACCEPTOR>
5

> <PUBCHEM_CACTVS_HBOND_DONOR>
3

> <PUBCHEM_CACTVS_ROTATABLE_BOND>
6

> <PUBCHEM_CACTVS_SUBSKEYS>
AAADceB7uAAEAAAAAAAAAAAAGAAAAAAAAAA8YIAAAAAAAACx9AAAHgIQAAAADC7BniY/xvLIFACoAzV3VACCiCA1JyAI2KE+btiMJvbFt5vGOWju9hvI6ae4/e/eKEACAwAKABBQgAQGABQAIAAAAAAAAA==

> <PUBCHEM_IUPAC_OPENEYE_NAME>
4-[3-chloro-4-(cyclopropylcarbamoylamino)phenoxy]-7-methoxy-quinoline-6-carboxamide

> <PUBCHEM_IUPAC_CAS_NAME>
4-[3-chloro-4-[[(cyclopropylamino)-oxomethyl]amino]phenoxy]-7-methoxy-6-quinolinecarboxamide

> <PUBCHEM_IUPAC_NAME_MARKUP>
4-[3-chloro-4-(cyclopropylcarbamoylamino)phenoxy]-7-methoxyquinoline-6-carboxamide

> <PUBCHEM_IUPAC_NAME>
4-[3-chloro-4-(cyclopropylcarbamoylamino)phenoxy]-7-methoxyquinoline-6-carboxamide

> <PUBCHEM_IUPAC_SYSTEMATIC_NAME>
4-[3-chloranyl-4-(cyclopropylcarbamoylamino)phenoxy]-7-methoxy-quinoline-6-carboxamide

> <PUBCHEM_IUPAC_TRADITIONAL_NAME>
4-[3-chloro-4-(cyclopropylcarbamoylamino)phenoxy]-7-methoxy-quinoline-6-carboxamide

> <PUBCHEM_IUPAC_INCHI>
InChI=1S/C21H19ClN4O4/c1-29-19-10-17-13(9-14(19)20(23)27)18(6-7-24-17)30-12-4-5-16(15(22)8-12)26-21(28)25-11-2-3-11/h4-11H,2-3H2,1H3,(H2,23,27)(H2,25,26,28)

> <PUBCHEM_IUPAC_INCHIKEY>
WOSKHXYHFSIKNG-UHFFFAOYSA-N

> <PUBCHEM_XLOGP3_AA>
2.8

> <PUBCHEM_EXACT_MASS>
426.1094828

> <PUBCHEM_MOLECULAR_FORMULA>
C21H19ClN4O4

> <PUBCHEM_MOLECULAR_WEIGHT>
426.9

> <PUBCHEM_OPENEYE_CAN_SMILES>
COC1=CC2=NC=CC(=C2C=C1C(=O)N)OC3=CC(=C(C=C3)NC(=O)NC4CC4)Cl

> <PUBCHEM_OPENEYE_ISO_SMILES>
COC1=CC2=NC=CC(=C2C=C1C(=O)N)OC3=CC(=C(C=C3)NC(=O)NC4CC4)Cl

> <PUBCHEM_CACTVS_TPSA>
116

> <PUBCHEM_MONOISOTOPIC_WEIGHT>
426.1094828

> <PUBCHEM_TOTAL_CHARGE>
0

> <PUBCHEM_HEAVY_ATOM_COUNT>
30

> <PUBCHEM_ATOM_DEF_STEREO_COUNT>
0

> <PUBCHEM_ATOM_UDEF_STEREO_COUNT>
0

> <PUBCHEM_BOND_DEF_STEREO_COUNT>
0

> <PUBCHEM_BOND_UDEF_STEREO_COUNT>
0

> <PUBCHEM_ISOTOPIC_ATOM_COUNT>
0

> <PUBCHEM_COMPONENT_COUNT>
1

> <PUBCHEM_CACTVS_TAUTO_COUNT>
-1

> <PUBCHEM_COORDINATE_TYPE>
1
5
255

> <PUBCHEM_BONDANNOTATIONS>
14  15  8
14  16  8
15  21  8
16  22  8
17  19  8
17  20  8
17  23  8
18  21  8
18  22  8
19  27  8
20  26  8
23  24  8
24  25  8
25  26  8
27  28  8
8  20  8
8  28  8

$$$$
24767976
  -OEChem-11282412102D

 56 60  0     0  0  0  0  0  0999 V2000
   13.0407    3.1740    0.0000 O   0  0  0  0  0  0  0  0  0  0  0  0
    7.9128    0.4420    0.0000 O   0  0  0  0  0  0  0  0  0  0  0  0
    5.3147   -1.0580    0.0000 O   0  0  0  0  0  0  0  0  0  0  0  0
   13.0407    1.4420    0.0000 N   0  0  0  0  0  0  0  0  0  0  0  0
   11.4571    2.2467    0.0000 N   0  0  0  0  0  0  0  0  0  0  0  0
   10.5109    0.9420    0.0000 N   0  0  0  0  0  0  0  0  0  0  0  0
    9.6448    0.4420    0.0000 N   0  0  0  0  0  0  0  0  0  0  0  0
    4.4487    0.4420    0.0000 N   0  0  0  0  0  0  0  0  0  0  0  0
    2.6691   -0.6513    0.0000 N   0  0  0  0  0  0  0  0  0  0  0  0
    2.0000   -1.3944    0.0000 N   0  0  0  0  0  0  0  0  0  0  0  0
   14.5407    2.3080    0.0000 C   0  0  0  0  0  0  0  0  0  0  0  0
   15.4067    1.8080    0.0000 C   0  0  0  0  0  0  0  0  0  0  0  0
   15.4067    2.8080    0.0000 C   0  0  0  0  0  0  0  0  0  0  0  0
   13.5407    2.3080    0.0000 C   0  0  0  0  0  0  0  0  0  0  0  0
   12.0407    1.4420    0.0000 C   0  0  0  0  0  0  0  0  0  0  0  0
   11.4571    0.6372    0.0000 C   0  0  0  0  0  0  0  0  0  0  0  0
   10.5109    1.9420    0.0000 C   0  0  0  0  0  0  0  0  0  0  0  0
    9.6448    2.4420    0.0000 C   0  0  0  0  0  0  0  0  0  0  0  0
    8.7788    0.9420    0.0000 C   0  0  0  0  0  0  0  0  0  0  0  0
    8.7788    1.9420    0.0000 C   0  0  0  0  0  0  0  0  0  0  0  0
    5.3147    0.9420    0.0000 C   0  0  0  0  0  0  0  0  0  0  0  0
    7.0468    0.9420    0.0000 C   0  0  0  0  0  0  0  0  0  0  0  0
    5.3147    1.9420    0.0000 C   0  0  0  0  0  0  0  0  0  0  0  0
    6.1808    0.4420    0.0000 C   0  0  0  0  0  0  0  0  0  0  0  0
    3.5827   -1.0580    0.0000 C   0  0  0  0  0  0  0  0  0  0  0  0
    6.1808    2.4420    0.0000 C   0  0  0  0  0  0  0  0  0  0  0  0
    7.0468    1.9420    0.0000 C   0  0  0  0  0  0  0  0  0  0  0  0
    4.4487   -0.5580    0.0000 C   0  0  0  0  0  0  0  0  0  0  0  0
    3.4782   -2.0526    0.0000 C   0  0  0  0  0  0  0  0  0  0  0  0
    2.5000   -2.2605    0.0000 C   0  0  0  0  0  0  0  0  0  0  0  0
    4.4487    2.4420    0.0000 C   0  0  0  0  0  0  0  0  0  0  0  0
    2.4612    0.3268    0.0000 C   0  0  0  0  0  0  0  0  0  0  0  0
    2.0933   -3.1740    0.0000 C   0  0  0  0  0  0  0  0  0  0  0  0
   14.3802    2.9069    0.0000 H   0  0  0  0  0  0  0  0  0  0  0  0
   15.1947    1.2254    0.0000 H   0  0  0  0  0  0  0  0  0  0  0  0
   16.0173    1.7003    0.0000 H   0  0  0  0  0  0  0  0  0  0  0  0
   16.0173    2.9156    0.0000 H   0  0  0  0  0  0  0  0  0  0  0  0
   15.1947    3.3906    0.0000 H   0  0  0  0  0  0  0  0  0  0  0  0
   13.3507    0.9050    0.0000 H   0  0  0  0  0  0  0  0  0  0  0  0
   11.6497    0.0479    0.0000 H   0  0  0  0  0  0  0  0  0  0  0  0
    9.6448    3.0620    0.0000 H   0  0  0  0  0  0  0  0  0  0  0  0
    8.2419    2.2520    0.0000 H   0  0  0  0  0  0  0  0  0  0  0  0
    6.1808   -0.1780    0.0000 H   0  0  0  0  0  0  0  0  0  0  0  0
    3.9118    0.7520    0.0000 H   0  0  0  0  0  0  0  0  0  0  0  0
    6.1808    3.0620    0.0000 H   0  0  0  0  0  0  0  0  0  0  0  0
    7.5837    2.2520    0.0000 H   0  0  0  0  0  0  0  0  0  0  0  0
    3.9389   -2.4674    0.0000 H   0  0  0  0  0  0  0  0  0  0  0  0
    4.7587    2.9789    0.0000 H   0  0  0  0  0  0  0  0  0  0  0  0
    3.9118    2.7520    0.0000 H   0  0  0  0  0  0  0  0  0  0  0  0
    4.1387    1.9050    0.0000 H   0  0  0  0  0  0  0  0  0  0  0  0
    3.0677    0.4558    0.0000 H   0  0  0  0  0  0  0  0  0  0  0  0
    2.3323    0.9333    0.0000 H   0  0  0  0  0  0  0  0  0  0  0  0
    1.8548    0.1979    0.0000 H   0  0  0  0  0  0  0  0  0  0  0  0
    1.5269   -2.9218    0.0000 H   0  0  0  0  0  0  0  0  0  0  0  0
    1.8411   -3.7404    0.0000 H   0  0  0  0  0  0  0  0  0  0  0  0
    2.6597   -3.4262    0.0000 H   0  0  0  0  0  0  0  0  0  0  0  0
  1 14  2  0  0  0  0
  2 19  1  0  0  0  0
  2 22  1  0  0  0  0
  3 28  2  0  0  0  0
  4 14  1  0  0  0  0
  4 15  1  0  0  0  0
  4 39  1  0  0  0  0
  5 15  1  0  0  0  0
  5 17  2  0  0  0  0
  6  7  1  0  0  0  0
  6 16  1  0  0  0  0
  6 17  1  0  0  0  0
  7 19  2  0  0  0  0
  8 21  1  0  0  0  0
  8 28  1  0  0  0  0
  8 44  1  0  0  0  0
  9 10  1  0  0  0  0
  9 25  1  0  0  0  0
  9 32  1  0  0  0  0
 10 30  2  0  0  0  0
 11 12  1  0  0  0  0
 11 13  1  0  0  0  0
 11 14  1  0  0  0  0
 11 34  1  0  0  0  0
 12 13  1  0  0  0  0
 12 35  1  0  0  0  0
 12 36  1  0  0  0  0
 13 37  1  0  0  0  0
 13 38  1  0  0  0  0
 15 16  2  0  0  0  0
 16 40  1  0  0  0  0
 17 18  1  0  0  0  0
 18 20  2  0  0  0  0
 18 41  1  0  0  0  0
 19 20  1  0  0  0  0
 20 42  1  0  0  0  0
 21 23  2  0  0  0  0
 21 24  1  0  0  0  0
 22 24  2  0  0  0  0
 22 27  1  0  0  0  0
 23 26  1  0  0  0  0
 23 31  1  0  0  0  0
 24 43  1  0  0  0  0
 25 28  1  0  0  0  0
 25 29  2  0  0  0  0
 26 27  2  0  0  0  0
 26 45  1  0  0  0  0
 27 46  1  0  0  0  0
 29 30  1  0  0  0  0
 29 47  1  0  0  0  0
 30 33  1  0  0  0  0
 31 48  1  0  0  0  0
 31 49  1  0  0  0  0
 31 50  1  0  0  0  0
 32 51  1  0  0  0  0
 32 52  1  0  0  0  0
 32 53  1  0  0  0  0
 33 54  1  0  0  0  0
 33 55  1  0  0  0  0
 33 56  1  0  0  0  0
M  END
> <PUBCHEM_COMPOUND_CID>
24767976

> <PUBCHEM_COMPOUND_CANONICALIZED>
1

> <PUBCHEM_CACTVS_COMPLEXITY>
735

> <PUBCHEM_CACTVS_HBOND_ACCEPTOR>
6

> <PUBCHEM_CACTVS_HBOND_DONOR>
2

> <PUBCHEM_CACTVS_ROTATABLE_BOND>
6

> <PUBCHEM_CACTVS_SUBSKEYS>
AAADceB7sAAAAAAAAAAAAAAAGAAAAWLAAAA8QAAAAAAAAFgB/AAAHgAYAAAADQzBnwQ/9p7IFACqAzd3dACSjC83sqAd2CG+fNiMbvLE/fuevSju3RvI6ae80AMOIAAAAgACAABAAAAEAAQAAAAAAAAAAA==

> <PUBCHEM_IUPAC_OPENEYE_NAME>
N-[5-[2-(cyclopropanecarbonylamino)imidazo[1,2-b]pyridazin-6-yl]oxy-2-methyl-phenyl]-2,5-dimethyl-pyrazole-3-carboxamide

> <PUBCHEM_IUPAC_CAS_NAME>
N-[5-[[2-[[cyclopropyl(oxo)methyl]amino]-6-imidazo[1,2-b]pyridazinyl]oxy]-2-methylphenyl]-2,5-dimethyl-3-pyrazolecarboxamide

> <PUBCHEM_IUPAC_NAME_MARKUP>
<I>N</I>-[5-[2-(cyclopropanecarbonylamino)imidazo[1,2-b]pyridazin-6-yl]oxy-2-methylphenyl]-2,5-dimethylpyrazole-3-carboxamide

> <PUBCHEM_IUPAC_NAME>
N-[5-[2-(cyclopropanecarbonylamino)imidazo[1,2-b]pyridazin-6-yl]oxy-2-methylphenyl]-2,5-dimethylpyrazole-3-carboxamide

> <PUBCHEM_IUPAC_SYSTEMATIC_NAME>
N-[5-[2-(cyclopropylcarbonylamino)imidazo[1,2-b]pyridazin-6-yl]oxy-2-methyl-phenyl]-2,5-dimethyl-pyrazole-3-carboxamide

> <PUBCHEM_IUPAC_TRADITIONAL_NAME>
N-[5-[2-(cyclopropanecarbonylamino)imidazo[1,2-b]pyridazin-6-yl]oxy-2-methyl-phenyl]-2,5-dimethyl-pyrazole-3-carboxamide

> <PUBCHEM_IUPAC_INCHI>
InChI=1S/C23H23N7O3/c1-13-4-7-16(11-17(13)24-23(32)18-10-14(2)27-29(18)3)33-21-9-8-20-25-19(12-30(20)28-21)26-22(31)15-5-6-15/h4,7-12,15H,5-6H2,1-3H3,(H,24,32)(H,26,31)

> <PUBCHEM_IUPAC_INCHIKEY>
DZFZXPPHBWCXPQ-UHFFFAOYSA-N

> <PUBCHEM_XLOGP3_AA>
2.4

> <PUBCHEM_EXACT_MASS>
445.18623762

> <PUBCHEM_MOLECULAR_FORMULA>
C23H23N7O3

> <PUBCHEM_MOLECULAR_WEIGHT>
445.5

> <PUBCHEM_OPENEYE_CAN_SMILES>
CC1=C(C=C(C=C1)OC2=NN3C=C(N=C3C=C2)NC(=O)C4CC4)NC(=O)C5=CC(=NN5C)C

> <PUBCHEM_OPENEYE_ISO_SMILES>
CC1=C(C=C(C=C1)OC2=NN3C=C(N=C3C=C2)NC(=O)C4CC4)NC(=O)C5=CC(=NN5C)C

> <PUBCHEM_CACTVS_TPSA>
115

> <PUBCHEM_MONOISOTOPIC_WEIGHT>
445.18623762

> <PUBCHEM_TOTAL_CHARGE>
0

> <PUBCHEM_HEAVY_ATOM_COUNT>
33

> <PUBCHEM_ATOM_DEF_STEREO_COUNT>
0

> <PUBCHEM_ATOM_UDEF_STEREO_COUNT>
0

> <PUBCHEM_BOND_DEF_STEREO_COUNT>
0

> <PUBCHEM_BOND_UDEF_STEREO_COUNT>
0

> <PUBCHEM_ISOTOPIC_ATOM_COUNT>
0

> <PUBCHEM_COMPONENT_COUNT>
1

> <PUBCHEM_CACTVS_TAUTO_COUNT>
-1

> <PUBCHEM_COORDINATE_TYPE>
1
5
255

> <PUBCHEM_BONDANNOTATIONS>
10  30  8
15  16  8
17  18  8
18  20  8
19  20  8
21  23  8
21  24  8
22  24  8
22  27  8
23  26  8
25  29  8
26  27  8
29  30  8
5  15  8
5  17  8
6  16  8
6  17  8
6  7  8
7  19  8
9  10  8
9  25  8

$$$$
11387605
  -OEChem-11282412102D

 73 77  0     1  0  0  0  0  0999 V2000
    8.7631    2.5000    0.0000 F   0  0  0  0  0  0  0  0  0  0  0  0
    7.7631    3.5000    0.0000 F   0  0  0  0  0  0  0  0  0  0  0  0
    6.7631    2.5000    0.0000 F   0  0  0  0  0  0  0  0  0  0  0  0
   10.3611    0.0000    0.0000 O   0  0  0  0  0  0  0  0  0  0  0  0
    5.1650    1.0000    0.0000 N   0  0  3  0  0  0  0  0  0  0  0  0
    2.5878    0.7681    0.0000 N   0  0  0  0  0  0  0  0  0  0  0  0
    9.4951   -1.5000    0.0000 N   0  0  0  0  0  0  0  0  0  0  0  0
   12.9592   -1.5000    0.0000 N   0  0  0  0  0  0  0  0  0  0  0  0
   14.6913   -1.5000    0.0000 N   0  0  0  0  0  0  0  0  0  0  0  0
   13.8252   -3.0000    0.0000 N   0  0  0  0  0  0  0  0  0  0  0  0
   18.1554   -1.5000    0.0000 N   0  0  0  0  0  0  0  0  0  0  0  0
   17.2893   -0.0000    0.0000 N   0  0  0  0  0  0  0  0  0  0  0  0
    3.5823    0.6636    0.0000 C   0  0  1  0  0  0  0  0  0  0  0  0
    4.0823   -0.2024    0.0000 C   0  0  0  0  0  0  0  0  0  0  0  0
    4.2514    1.4067    0.0000 C   0  0  0  0  0  0  0  0  0  0  0  0
    5.0604    0.0055    0.0000 C   0  0  0  0  0  0  0  0  0  0  0  0
    6.0310    1.5000    0.0000 C   0  0  0  0  0  0  0  0  0  0  0  0
    6.8970    1.0000    0.0000 C   0  0  0  0  0  0  0  0  0  0  0  0
    2.0000   -0.0409    0.0000 C   0  0  0  0  0  0  0  0  0  0  0  0
    2.1810    1.6817    0.0000 C   0  0  0  0  0  0  0  0  0  0  0  0
    7.7631    1.5000    0.0000 C   0  0  0  0  0  0  0  0  0  0  0  0
    6.8970    0.0000    0.0000 C   0  0  0  0  0  0  0  0  0  0  0  0
    8.6291    1.0000    0.0000 C   0  0  0  0  0  0  0  0  0  0  0  0
    7.7631   -0.5000    0.0000 C   0  0  0  0  0  0  0  0  0  0  0  0
    7.7631    2.5000    0.0000 C   0  0  0  0  0  0  0  0  0  0  0  0
    8.6291    0.0000    0.0000 C   0  0  0  0  0  0  0  0  0  0  0  0
    9.4951   -0.5000    0.0000 C   0  0  0  0  0  0  0  0  0  0  0  0
   10.3611   -2.0000    0.0000 C   0  0  0  0  0  0  0  0  0  0  0  0
   11.2272   -1.5000    0.0000 C   0  0  0  0  0  0  0  0  0  0  0  0
   10.3611   -3.0000    0.0000 C   0  0  0  0  0  0  0  0  0  0  0  0
   12.0932   -2.0000    0.0000 C   0  0  0  0  0  0  0  0  0  0  0  0
   12.0932   -3.0000    0.0000 C   0  0  0  0  0  0  0  0  0  0  0  0
   11.2272   -3.5000    0.0000 C   0  0  0  0  0  0  0  0  0  0  0  0
   12.9592   -3.5000    0.0000 C   0  0  0  0  0  0  0  0  0  0  0  0
   13.8252   -2.0000    0.0000 C   0  0  0  0  0  0  0  0  0  0  0  0
   15.5573   -2.0000    0.0000 C   0  0  0  0  0  0  0  0  0  0  0  0
   15.5573   -3.0000    0.0000 C   0  0  0  0  0  0  0  0  0  0  0  0
   14.6913   -3.5000    0.0000 C   0  0  0  0  0  0  0  0  0  0  0  0
   16.4233   -1.5000    0.0000 C   0  0  0  0  0  0  0  0  0  0  0  0
   17.2893   -2.0000    0.0000 C   0  0  0  0  0  0  0  0  0  0  0  0
   16.4233   -0.5000    0.0000 C   0  0  0  0  0  0  0  0  0  0  0  0
   18.1554   -0.5000    0.0000 C   0  0  0  0  0  0  0  0  0  0  0  0
    3.2446    0.1436    0.0000 H   0  0  0  0  0  0  0  0  0  0  0  0
    3.5159   -0.4546    0.0000 H   0  0  0  0  0  0  0  0  0  0  0  0
    4.2739   -0.7921    0.0000 H   0  0  0  0  0  0  0  0  0  0  0  0
    4.5614    1.9437    0.0000 H   0  0  0  0  0  0  0  0  0  0  0  0
    3.7498    1.7712    0.0000 H   0  0  0  0  0  0  0  0  0  0  0  0
    5.1253   -0.6111    0.0000 H   0  0  0  0  0  0  0  0  0  0  0  0
    5.6805    0.0055    0.0000 H   0  0  0  0  0  0  0  0  0  0  0  0
    6.4295    1.9750    0.0000 H   0  0  0  0  0  0  0  0  0  0  0  0
    5.6325    1.9750    0.0000 H   0  0  0  0  0  0  0  0  0  0  0  0
    1.4984    0.3235    0.0000 H   0  0  0  0  0  0  0  0  0  0  0  0
    1.6356   -0.5425    0.0000 H   0  0  0  0  0  0  0  0  0  0  0  0
    2.5016   -0.4053    0.0000 H   0  0  0  0  0  0  0  0  0  0  0  0
    2.7474    1.9338    0.0000 H   0  0  0  0  0  0  0  0  0  0  0  0
    1.9289    2.2481    0.0000 H   0  0  0  0  0  0  0  0  0  0  0  0
    1.6146    1.4295    0.0000 H   0  0  0  0  0  0  0  0  0  0  0  0
    6.3601   -0.3100    0.0000 H   0  0  0  0  0  0  0  0  0  0  0  0
    9.1660    1.3100    0.0000 H   0  0  0  0  0  0  0  0  0  0  0  0
    7.7631   -1.1200    0.0000 H   0  0  0  0  0  0  0  0  0  0  0  0
    8.9582   -1.8100    0.0000 H   0  0  0  0  0  0  0  0  0  0  0  0
   11.2272   -0.8800    0.0000 H   0  0  0  0  0  0  0  0  0  0  0  0
    9.8242   -3.3100    0.0000 H   0  0  0  0  0  0  0  0  0  0  0  0
   11.2272   -4.1200    0.0000 H   0  0  0  0  0  0  0  0  0  0  0  0
   12.9592   -0.8800    0.0000 H   0  0  0  0  0  0  0  0  0  0  0  0
   12.6492   -4.0369    0.0000 H   0  0  0  0  0  0  0  0  0  0  0  0
   13.4961   -3.8100    0.0000 H   0  0  0  0  0  0  0  0  0  0  0  0
   13.2692   -2.9631    0.0000 H   0  0  0  0  0  0  0  0  0  0  0  0
   16.0942   -3.3100    0.0000 H   0  0  0  0  0  0  0  0  0  0  0  0
   14.6913   -4.1200    0.0000 H   0  0  0  0  0  0  0  0  0  0  0  0
   17.2893   -2.6200    0.0000 H   0  0  0  0  0  0  0  0  0  0  0  0
   15.8864   -0.1900    0.0000 H   0  0  0  0  0  0  0  0  0  0  0  0
   18.6923   -0.1900    0.0000 H   0  0  0  0  0  0  0  0  0  0  0  0
  1 25  1  0  0  0  0
  2 25  1  0  0  0  0
  3 25  1  0  0  0  0
  4 27  2  0  0  0  0
  5 15  1  0  0  0  0
  5 16  1  0  0  0  0
  5 17  1  0  0  0  0
 13  6  1  6  0  0  0
  6 19  1  0  0  0  0
  6 20  1  0  0  0  0
  7 27  1  0  0  0  0
  7 28  1  0  0  0  0
  7 61  1  0  0  0  0
  8 31  1  0  0  0  0
  8 35  1  0  0  0  0
  8 65  1  0  0  0  0
  9 35  1  0  0  0  0
  9 36  2  0  0  0  0
 10 35  2  0  0  0  0
 10 38  1  0  0  0  0
 11 40  2  0  0  0  0
 11 42  1  0  0  0  0
 12 41  1  0  0  0  0
 12 42  2  0  0  0  0
 13 14  1  0  0  0  0
 13 15  1  0  0  0  0
 13 43  1  0  0  0  0
 14 16  1  0  0  0  0
 14 44  1  0  0  0  0
 14 45  1  0  0  0  0
 15 46  1  0  0  0  0
 15 47  1  0  0  0  0
 16 48  1  0  0  0  0
 16 49  1  0  0  0  0
 17 18  1  0  0  0  0
 17 50  1  0  0  0  0
 17 51  1  0  0  0  0
 18 21  2  0  0  0  0
 18 22  1  0  0  0  0
 19 52  1  0  0  0  0
 19 53  1  0  0  0  0
 19 54  1  0  0  0  0
 20 55  1  0  0  0  0
 20 56  1  0  0  0  0
 20 57  1  0  0  0  0
 21 23  1  0  0  0  0
 21 25  1  0  0  0  0
 22 24  2  0  0  0  0
 22 58  1  0  0  0  0
 23 26  2  0  0  0  0
 23 59  1  0  0  0  0
 24 26  1  0  0  0  0
 24 60  1  0  0  0  0
 26 27  1  0  0  0  0
 28 29  2  0  0  0  0
 28 30  1  0  0  0  0
 29 31  1  0  0  0  0
 29 62  1  0  0  0  0
 30 33  2  0  0  0  0
 30 63  1  0  0  0  0
 31 32  2  0  0  0  0
 32 33  1  0  0  0  0
 32 34  1  0  0  0  0
 33 64  1  0  0  0  0
 34 66  1  0  0  0  0
 34 67  1  0  0  0  0
 34 68  1  0  0  0  0
 36 37  1  0  0  0  0
 36 39  1  0  0  0  0
 37 38  2  0  0  0  0
 37 69  1  0  0  0  0
 38 70  1  0  0  0  0
 39 40  1  0  0  0  0
 39 41  2  0  0  0  0
 40 71  1  0  0  0  0
 41 72  1  0  0  0  0
 42 73  1  0  0  0  0
M  END
> <PUBCHEM_COMPOUND_CID>
11387605

> <PUBCHEM_COMPOUND_CANONICALIZED>
1

> <PUBCHEM_CACTVS_COMPLEXITY>
872

> <PUBCHEM_CACTVS_HBOND_ACCEPTOR>
11

> <PUBCHEM_CACTVS_HBOND_DONOR>
2

> <PUBCHEM_CACTVS_ROTATABLE_BOND>
8

> <PUBCHEM_CACTVS_SUBSKEYS>
AAADceB74YAAAAAAAAAAAAAAAAAAAWAAAAA8eIEAAAAAAAAB9AAAHwAQAAAADCjBnhQ/0JfIEACoAzV3dACCgCk1AqAJ2CE4ZNiIaLLA3dGUJQholALIyacYiMCOyAACAAQSAACQAAQACCQAAAAAAAAAAA==

> <PUBCHEM_IUPAC_OPENEYE_NAME>
4-[[(3S)-3-(dimethylamino)pyrrolidin-1-yl]methyl]-N-[4-methyl-3-[(4-pyrimidin-5-ylpyrimidin-2-yl)amino]phenyl]-3-(trifluoromethyl)benzamide

> <PUBCHEM_IUPAC_CAS_NAME>
4-[[(3S)-3-(dimethylamino)-1-pyrrolidinyl]methyl]-N-[4-methyl-3-[[4-(5-pyrimidinyl)-2-pyrimidinyl]amino]phenyl]-3-(trifluoromethyl)benzamide

> <PUBCHEM_IUPAC_NAME_MARKUP>
4-[[(3<I>S</I>)-3-(dimethylamino)pyrrolidin-1-yl]methyl]-<I>N</I>-[4-methyl-3-[(4-pyrimidin-5-ylpyrimidin-2-yl)amino]phenyl]-3-(trifluoromethyl)benzamide

> <PUBCHEM_IUPAC_NAME>
4-[[(3S)-3-(dimethylamino)pyrrolidin-1-yl]methyl]-N-[4-methyl-3-[(4-pyrimidin-5-ylpyrimidin-2-yl)amino]phenyl]-3-(trifluoromethyl)benzamide

> <PUBCHEM_IUPAC_SYSTEMATIC_NAME>
4-[[(3S)-3-(dimethylamino)pyrrolidin-1-yl]methyl]-N-[4-methyl-3-[(4-pyrimidin-5-ylpyrimidin-2-yl)amino]phenyl]-3-(trifluoromethyl)benzamide

> <PUBCHEM_IUPAC_TRADITIONAL_NAME>
4-[[(3S)-3-(dimethylamino)pyrrolidino]methyl]-N-[4-methyl-3-[[4-(5-pyrimidyl)pyrimidin-2-yl]amino]phenyl]-3-(trifluoromethyl)benzamide

> <PUBCHEM_IUPAC_INCHI>
InChI=1S/C30H31F3N8O/c1-19-4-7-23(13-27(19)39-29-36-10-8-26(38-29)22-14-34-18-35-15-22)37-28(42)20-5-6-21(25(12-20)30(31,32)33)16-41-11-9-24(17-41)40(2)3/h4-8,10,12-15,18,24H,9,11,16-17H2,1-3H3,(H,37,42)(H,36,38,39)/t24-/m0/s1

> <PUBCHEM_IUPAC_INCHIKEY>
ZGBAJMQHJDFTQJ-DEOSSOPVSA-N

> <PUBCHEM_XLOGP3_AA>
4.2

> <PUBCHEM_EXACT_MASS>
576.25729213

> <PUBCHEM_MOLECULAR_FORMULA>
C30H31F3N8O

> <PUBCHEM_MOLECULAR_WEIGHT>
576.6

> <PUBCHEM_OPENEYE_CAN_SMILES>
CC1=C(C=C(C=C1)NC(=O)C2=CC(=C(C=C2)CN3CCC(C3)N(C)C)C(F)(F)F)NC4=NC=CC(=N4)C5=CN=CN=C5

> <PUBCHEM_OPENEYE_ISO_SMILES>
CC1=C(C=C(C=C1)NC(=O)C2=CC(=C(C=C2)CN3CC[C@@H](C3)N(C)C)C(F)(F)F)NC4=NC=CC(=N4)C5=CN=CN=C5

> <PUBCHEM_CACTVS_TPSA>
99.2

> <PUBCHEM_MONOISOTOPIC_WEIGHT>
576.25729213

> <PUBCHEM_TOTAL_CHARGE>
0

> <PUBCHEM_HEAVY_ATOM_COUNT>
42

> <PUBCHEM_ATOM_DEF_STEREO_COUNT>
1

> <PUBCHEM_ATOM_UDEF_STEREO_COUNT>
0

> <PUBCHEM_BOND_DEF_STEREO_COUNT>
0

> <PUBCHEM_BOND_UDEF_STEREO_COUNT>
0

> <PUBCHEM_ISOTOPIC_ATOM_COUNT>
0

> <PUBCHEM_COMPONENT_COUNT>
1

> <PUBCHEM_CACTVS_TAUTO_COUNT>
-1

> <PUBCHEM_COORDINATE_TYPE>
1
5
255

> <PUBCHEM_BONDANNOTATIONS>
10  35  8
10  38  8
11  40  8
11  42  8
12  41  8
12  42  8
18  21  8
18  22  8
21  23  8
22  24  8
23  26  8
24  26  8
28  29  8
28  30  8
29  31  8
30  33  8
31  32  8
32  33  8
36  37  8
37  38  8
39  40  8
39  41  8
13  6  6
9  35  8
9  36  8

$$$$
117918742
  -OEChem-11282412102D

 50 54  0     1  0  0  0  0  0999 V2000
    8.8907   -2.2665    0.0000 O   0  0  0  0  0  0  0  0  0  0  0  0
    5.2273   -2.0987    0.0000 N   0  0  0  0  0  0  0  0  0  0  0  0
    7.5991   -3.4205    0.0000 N   0  0  0  0  0  0  0  0  0  0  0  0
    3.5424   -2.8835    0.0000 N   0  0  0  0  0  0  0  0  0  0  0  0
    2.2000   -1.6841    0.0000 N   0  0  0  0  0  0  0  0  0  0  0  0
    2.6049    0.0392    0.0000 N   0  0  0  0  0  0  0  0  0  0  0  0
    3.8613    1.9401    0.0000 N   0  0  0  0  0  0  0  0  0  0  0  0
    5.5364   -1.1477    0.0000 C   0  0  0  0  0  0  0  0  0  0  0  0
    5.9123   -2.8835    0.0000 C   0  0  0  0  0  0  0  0  0  0  0  0
    6.9328   -2.6748    0.0000 C   0  0  2  0  0  0  0  0  0  0  0  0
    4.7273   -0.5599    0.0000 C   0  0  0  0  0  0  0  0  0  0  0  0
    6.5518   -0.9154    0.0000 C   0  0  0  0  0  0  0  0  0  0  0  0
    4.2273   -2.0987    0.0000 C   0  0  0  0  0  0  0  0  0  0  0  0
    3.9183   -1.1477    0.0000 C   0  0  0  0  0  0  0  0  0  0  0  0
    7.2547   -1.6841    0.0000 C   0  0  0  0  0  0  0  0  0  0  0  0
    4.7273    0.4401    0.0000 C   0  0  0  0  0  0  0  0  0  0  0  0
    6.8498    0.0392    0.0000 C   0  0  0  0  0  0  0  0  0  0  0  0
    2.9029   -0.9154    0.0000 C   0  0  0  0  0  0  0  0  0  0  0  0
    5.5934    0.9401    0.0000 C   0  0  0  0  0  0  0  0  0  0  0  0
    3.8613    0.9401    0.0000 C   0  0  0  0  0  0  0  0  0  0  0  0
    2.5219   -2.6748    0.0000 C   0  0  0  0  0  0  0  0  0  0  0  0
    5.5934    1.9401    0.0000 C   0  0  0  0  0  0  0  0  0  0  0  0
    8.5780   -3.2163    0.0000 C   0  0  0  0  0  0  0  0  0  0  0  0
    4.7273    2.4401    0.0000 C   0  0  0  0  0  0  0  0  0  0  0  0
    6.5034    2.4470    0.0000 C   0  0  0  0  0  0  0  0  0  0  0  0
    4.7113    3.4816    0.0000 C   0  0  0  0  0  0  0  0  0  0  0  0
    9.2443   -3.9620    0.0000 C   0  0  0  0  0  0  0  0  0  0  0  0
    6.5114    3.4886    0.0000 C   0  0  0  0  0  0  0  0  0  0  0  0
    5.6093    4.0094    0.0000 C   0  0  0  0  0  0  0  0  0  0  0  0
   10.2232   -3.7579    0.0000 C   0  0  0  0  0  0  0  0  0  0  0  0
    5.3824   -3.2052    0.0000 H   0  0  0  0  0  0  0  0  0  0  0  0
    6.1386   -3.4607    0.0000 H   0  0  0  0  0  0  0  0  0  0  0  0
    6.7378   -3.2633    0.0000 H   0  0  0  0  0  0  0  0  0  0  0  0
    7.8606   -1.5529    0.0000 H   0  0  0  0  0  0  0  0  0  0  0  0
    7.4052   -4.0094    0.0000 H   0  0  0  0  0  0  0  0  0  0  0  0
    7.4416   -0.1456    0.0000 H   0  0  0  0  0  0  0  0  0  0  0  0
    7.0345    0.6310    0.0000 H   0  0  0  0  0  0  0  0  0  0  0  0
    6.2579    0.2239    0.0000 H   0  0  0  0  0  0  0  0  0  0  0  0
    6.1303    0.6301    0.0000 H   0  0  0  0  0  0  0  0  0  0  0  0
    3.3244    0.6301    0.0000 H   0  0  0  0  0  0  0  0  0  0  0  0
    2.1088   -3.1371    0.0000 H   0  0  0  0  0  0  0  0  0  0  0  0
    2.0000    0.1751    0.0000 H   0  0  0  0  0  0  0  0  0  0  0  0
    3.0251    0.4951    0.0000 H   0  0  0  0  0  0  0  0  0  0  0  0
    7.0367    2.1308    0.0000 H   0  0  0  0  0  0  0  0  0  0  0  0
    4.1708    3.7854    0.0000 H   0  0  0  0  0  0  0  0  0  0  0  0
    9.0504   -4.5510    0.0000 H   0  0  0  0  0  0  0  0  0  0  0  0
    7.0495    3.7965    0.0000 H   0  0  0  0  0  0  0  0  0  0  0  0
    5.6069    4.6294    0.0000 H   0  0  0  0  0  0  0  0  0  0  0  0
   10.6363   -4.2202    0.0000 H   0  0  0  0  0  0  0  0  0  0  0  0
   10.4171   -3.1690    0.0000 H   0  0  0  0  0  0  0  0  0  0  0  0
  1 23  2  0  0  0  0
  2  8  1  0  0  0  0
  2  9  1  0  0  0  0
  2 13  1  0  0  0  0
 10  3  1  6  0  0  0
  3 23  1  0  0  0  0
  3 35  1  0  0  0  0
  4 13  2  0  0  0  0
  4 21  1  0  0  0  0
  5 18  1  0  0  0  0
  5 21  2  0  0  0  0
  6 18  1  0  0  0  0
  6 42  1  0  0  0  0
  6 43  1  0  0  0  0
  7 20  2  0  0  0  0
  7 24  1  0  0  0  0
  8 11  2  0  0  0  0
  8 12  1  0  0  0  0
  9 10  1  0  0  0  0
  9 31  1  0  0  0  0
  9 32  1  0  0  0  0
 10 15  1  0  0  0  0
 10 33  1  0  0  0  0
 11 14  1  0  0  0  0
 11 16  1  0  0  0  0
 12 15  2  0  0  0  0
 12 17  1  0  0  0  0
 13 14  1  0  0  0  0
 14 18  2  0  0  0  0
 15 34  1  0  0  0  0
 16 19  2  0  0  0  0
 16 20  1  0  0  0  0
 17 36  1  0  0  0  0
 17 37  1  0  0  0  0
 17 38  1  0  0  0  0
 19 22  1  0  0  0  0
 19 39  1  0  0  0  0
 20 40  1  0  0  0  0
 21 41  1  0  0  0  0
 22 24  1  0  0  0  0
 22 25  2  0  0  0  0
 23 27  1  0  0  0  0
 24 26  2  0  0  0  0
 25 28  1  0  0  0  0
 25 44  1  0  0  0  0
 26 29  1  0  0  0  0
 26 45  1  0  0  0  0
 27 30  2  0  0  0  0
 27 46  1  0  0  0  0
 28 29  2  0  0  0  0
 28 47  1  0  0  0  0
 29 48  1  0  0  0  0
 30 49  1  0  0  0  0
 30 50  1  0  0  0  0
M  END
> <PUBCHEM_COMPOUND_CID>
117918742

> <PUBCHEM_COMPOUND_CANONICALIZED>
1

> <PUBCHEM_CACTVS_COMPLEXITY>
710

> <PUBCHEM_CACTVS_HBOND_ACCEPTOR>
5

> <PUBCHEM_CACTVS_HBOND_DONOR>
2

> <PUBCHEM_CACTVS_ROTATABLE_BOND>
3

> <PUBCHEM_CACTVS_SUBSKEYS>
AAADceB7oAAAAAAAAAAAAAAAAAAAAWAAAAA8WIEAAAAAAFix/gAAHgAQAAAADCjBnwQ/8P/MEACoAzd3dACCgCkxAqAJ2KA4ZNiIaOLA2dGUJAholgLIyKcQgMAOgAAAAAACAAAAAAAAAAQAAAAAAAAAAA==

> <PUBCHEM_IUPAC_OPENEYE_NAME>
N-[(8S)-4-amino-6-methyl-5-(3-quinolyl)-8,9-dihydropyrimido[5,4-b]indolizin-8-yl]prop-2-enamide

> <PUBCHEM_IUPAC_CAS_NAME>
N-[(8S)-4-amino-6-methyl-5-(3-quinolinyl)-8,9-dihydropyrimido[5,4-b]indolizin-8-yl]-2-propenamide

> <PUBCHEM_IUPAC_NAME_MARKUP>
<I>N</I>-[(8<I>S</I>)-4-amino-6-methyl-5-quinolin-3-yl-8,9-dihydropyrimido[5,4-b]indolizin-8-yl]prop-2-enamide

> <PUBCHEM_IUPAC_NAME>
N-[(8S)-4-amino-6-methyl-5-quinolin-3-yl-8,9-dihydropyrimido[5,4-b]indolizin-8-yl]prop-2-enamide

> <PUBCHEM_IUPAC_SYSTEMATIC_NAME>
N-[(8S)-4-azanyl-6-methyl-5-quinolin-3-yl-8,9-dihydropyrimido[5,4-b]indolizin-8-yl]prop-2-enamide

> <PUBCHEM_IUPAC_TRADITIONAL_NAME>
N-[(8S)-4-amino-6-methyl-5-(3-quinolyl)-8,9-dihydropyrimid[5,4-b]indolizin-8-yl]acrylamide

> <PUBCHEM_IUPAC_INCHI>
InChI=1S/C23H20N6O/c1-3-18(30)28-16-8-13(2)21-19(15-9-14-6-4-5-7-17(14)25-10-15)20-22(24)26-12-27-23(20)29(21)11-16/h3-10,12,16H,1,11H2,2H3,(H,28,30)(H2,24,26,27)/t16-/m0/s1

> <PUBCHEM_IUPAC_INCHIKEY>
MKCYPWYURWOKST-INIZCTEOSA-N

> <PUBCHEM_XLOGP3_AA>
2.3

> <PUBCHEM_EXACT_MASS>
396.16985928

> <PUBCHEM_MOLECULAR_FORMULA>
C23H20N6O

> <PUBCHEM_MOLECULAR_WEIGHT>
396.4

> <PUBCHEM_OPENEYE_CAN_SMILES>
CC1=CC(CN2C1=C(C3=C(N=CN=C32)N)C4=CC5=CC=CC=C5N=C4)NC(=O)C=C

> <PUBCHEM_OPENEYE_ISO_SMILES>
CC1=C[C@@H](CN2C1=C(C3=C(N=CN=C32)N)C4=CC5=CC=CC=C5N=C4)NC(=O)C=C

> <PUBCHEM_CACTVS_TPSA>
98.7

> <PUBCHEM_MONOISOTOPIC_WEIGHT>
396.16985928

> <PUBCHEM_TOTAL_CHARGE>
0

> <PUBCHEM_HEAVY_ATOM_COUNT>
30

> <PUBCHEM_ATOM_DEF_STEREO_COUNT>
1

> <PUBCHEM_ATOM_UDEF_STEREO_COUNT>
0

> <PUBCHEM_BOND_DEF_STEREO_COUNT>
0

> <PUBCHEM_BOND_UDEF_STEREO_COUNT>
0

> <PUBCHEM_ISOTOPIC_ATOM_COUNT>
0

> <PUBCHEM_COMPONENT_COUNT>
1

> <PUBCHEM_CACTVS_TAUTO_COUNT>
-1

> <PUBCHEM_COORDINATE_TYPE>
1
5
255

> <PUBCHEM_BONDANNOTATIONS>
11  14  8
13  14  8
14  18  8
16  19  8
16  20  8
19  22  8
2  13  8
2  8  8
22  24  8
22  25  8
24  26  8
25  28  8
26  29  8
28  29  8
10  3  6
4  13  8
4  21  8
5  18  8
5  21  8
7  20  8
7  24  8
8  11  8

$$$$
11751922
  -OEChem-11282412102D

 63 69  0     0  0  0  0  0  0999 V2000
    8.3508    3.1350    0.0000 O   0  0  0  0  0  0  0  0  0  0  0  0
    4.6249    0.2127    0.0000 N   0  0  0  0  0  0  0  0  0  0  0  0
    8.6238    1.3798    0.0000 N   0  0  0  0  0  0  0  0  0  0  0  0
    6.6023    5.0590    0.0000 N   0  0  0  0  0  0  0  0  0  0  0  0
    5.5716    4.9596    0.0000 N   0  0  0  0  0  0  0  0  0  0  0  0
    6.8150   -3.1769    0.0000 N   0  0  0  0  0  0  0  0  0  0  0  0
    5.4168   -4.1991    0.0000 N   0  0  0  0  0  0  0  0  0  0  0  0
    7.0012   -4.8989    0.0000 N   0  0  0  0  0  0  0  0  0  0  0  0
    5.3619    0.8798    0.0000 C   0  0  0  0  0  0  0  0  0  0  0  0
    5.3619    1.8798    0.0000 C   0  0  0  0  0  0  0  0  0  0  0  0
    6.2279    0.3798    0.0000 C   0  0  0  0  0  0  0  0  0  0  0  0
    6.2279    2.3798    0.0000 C   0  0  0  0  0  0  0  0  0  0  0  0
    7.0939    0.8798    0.0000 C   0  0  0  0  0  0  0  0  0  0  0  0
    7.0939    1.8798    0.0000 C   0  0  0  0  0  0  0  0  0  0  0  0
    4.4519    2.3866    0.0000 C   0  0  0  0  0  0  0  0  0  0  0  0
    6.0187   -0.5920    0.0000 C   0  0  0  0  0  0  0  0  0  0  0  0
    5.0300   -0.6951    0.0000 C   0  0  0  0  0  0  0  0  0  0  0  0
    6.2440    3.4213    0.0000 C   0  0  0  0  0  0  0  0  0  0  0  0
    3.6464    0.4189    0.0000 C   0  0  0  0  0  0  0  0  0  0  0  0
    4.4438    3.4282    0.0000 C   0  0  0  0  0  0  0  0  0  0  0  0
    8.0401    0.5750    0.0000 C   0  0  0  0  0  0  0  0  0  0  0  0
    5.3459    3.9490    0.0000 C   0  0  0  0  0  0  0  0  0  0  0  0
    2.9785   -0.3254    0.0000 C   0  0  0  0  0  0  0  0  0  0  0  0
    8.0401    2.1845    0.0000 C   0  0  0  0  0  0  0  0  0  0  0  0
    6.6394   -1.4208    0.0000 C   0  0  0  0  0  0  0  0  0  0  0  0
    4.5935   -1.6341    0.0000 C   0  0  0  0  0  0  0  0  0  0  0  0
    7.0170    4.1102    0.0000 C   0  0  0  0  0  0  0  0  0  0  0  0
    6.2248   -2.3696    0.0000 C   0  0  0  0  0  0  0  0  0  0  0  0
    5.1949   -2.4770    0.0000 C   0  0  0  0  0  0  0  0  0  0  0  0
    2.0000   -0.1192    0.0000 C   0  0  0  0  0  0  0  0  0  0  0  0
    3.2892   -1.2759    0.0000 C   0  0  0  0  0  0  0  0  0  0  0  0
    7.1090    5.9211    0.0000 C   0  0  0  0  0  0  0  0  0  0  0  0
    6.4110   -4.0916    0.0000 C   0  0  0  0  0  0  0  0  0  0  0  0
    5.0128   -5.1139    0.0000 C   0  0  0  0  0  0  0  0  0  0  0  0
    6.5972   -5.8136    0.0000 C   0  0  0  0  0  0  0  0  0  0  0  0
    5.6030   -5.9211    0.0000 C   0  0  0  0  0  0  0  0  0  0  0  0
    3.8402    2.4880    0.0000 H   0  0  0  0  0  0  0  0  0  0  0  0
    4.2473    1.8013    0.0000 H   0  0  0  0  0  0  0  0  0  0  0  0
    3.8776    0.9942    0.0000 H   0  0  0  0  0  0  0  0  0  0  0  0
    3.1200    0.7465    0.0000 H   0  0  0  0  0  0  0  0  0  0  0  0
    4.2303    4.0103    0.0000 H   0  0  0  0  0  0  0  0  0  0  0  0
    3.8338    3.3174    0.0000 H   0  0  0  0  0  0  0  0  0  0  0  0
    7.7891    0.0081    0.0000 H   0  0  0  0  0  0  0  0  0  0  0  0
    8.5775    0.2658    0.0000 H   0  0  0  0  0  0  0  0  0  0  0  0
    3.5852   -0.4533    0.0000 H   0  0  0  0  0  0  0  0  0  0  0  0
    9.2438    1.3798    0.0000 H   0  0  0  0  0  0  0  0  0  0  0  0
    7.2553   -1.3494    0.0000 H   0  0  0  0  0  0  0  0  0  0  0  0
    3.9761   -1.6912    0.0000 H   0  0  0  0  0  0  0  0  0  0  0  0
    7.6227    3.9777    0.0000 H   0  0  0  0  0  0  0  0  0  0  0  0
    4.9400   -3.0422    0.0000 H   0  0  0  0  0  0  0  0  0  0  0  0
    2.1279    0.4875    0.0000 H   0  0  0  0  0  0  0  0  0  0  0  0
    1.3933    0.0087    0.0000 H   0  0  0  0  0  0  0  0  0  0  0  0
    1.8721   -0.7259    0.0000 H   0  0  0  0  0  0  0  0  0  0  0  0
    2.6998   -1.4685    0.0000 H   0  0  0  0  0  0  0  0  0  0  0  0
    3.4818   -1.8652    0.0000 H   0  0  0  0  0  0  0  0  0  0  0  0
    3.8785   -1.0833    0.0000 H   0  0  0  0  0  0  0  0  0  0  0  0
    7.6435    5.6070    0.0000 H   0  0  0  0  0  0  0  0  0  0  0  0
    7.4231    6.4557    0.0000 H   0  0  0  0  0  0  0  0  0  0  0  0
    6.5744    6.2353    0.0000 H   0  0  0  0  0  0  0  0  0  0  0  0
    7.4314   -3.1102    0.0000 H   0  0  0  0  0  0  0  0  0  0  0  0
    4.3964   -5.1805    0.0000 H   0  0  0  0  0  0  0  0  0  0  0  0
    6.9631   -6.3141    0.0000 H   0  0  0  0  0  0  0  0  0  0  0  0
    5.3525   -6.4883    0.0000 H   0  0  0  0  0  0  0  0  0  0  0  0
  1 24  2  0  0  0  0
  2  9  1  0  0  0  0
  2 17  1  0  0  0  0
  2 19  1  0  0  0  0
  3 21  1  0  0  0  0
  3 24  1  0  0  0  0
  3 46  1  0  0  0  0
  4  5  1  0  0  0  0
  4 27  1  0  0  0  0
  4 32  1  0  0  0  0
  5 22  2  0  0  0  0
  6 28  1  0  0  0  0
  6 33  1  0  0  0  0
  6 60  1  0  0  0  0
  7 33  2  0  0  0  0
  7 34  1  0  0  0  0
  8 33  1  0  0  0  0
  8 35  2  0  0  0  0
  9 10  1  0  0  0  0
  9 11  2  0  0  0  0
 10 12  2  0  0  0  0
 10 15  1  0  0  0  0
 11 13  1  0  0  0  0
 11 16  1  0  0  0  0
 12 14  1  0  0  0  0
 12 18  1  0  0  0  0
 13 14  2  0  0  0  0
 13 21  1  0  0  0  0
 14 24  1  0  0  0  0
 15 20  1  0  0  0  0
 15 37  1  0  0  0  0
 15 38  1  0  0  0  0
 16 17  2  0  0  0  0
 16 25  1  0  0  0  0
 17 26  1  0  0  0  0
 18 22  1  0  0  0  0
 18 27  2  0  0  0  0
 19 23  1  0  0  0  0
 19 39  1  0  0  0  0
 19 40  1  0  0  0  0
 20 22  1  0  0  0  0
 20 41  1  0  0  0  0
 20 42  1  0  0  0  0
 21 43  1  0  0  0  0
 21 44  1  0  0  0  0
 23 30  1  0  0  0  0
 23 31  1  0  0  0  0
 23 45  1  0  0  0  0
 25 28  2  0  0  0  0
 25 47  1  0  0  0  0
 26 29  2  0  0  0  0
 26 48  1  0  0  0  0
 27 49  1  0  0  0  0
 28 29  1  0  0  0  0
 29 50  1  0  0  0  0
 30 51  1  0  0  0  0
 30 52  1  0  0  0  0
 30 53  1  0  0  0  0
 31 54  1  0  0  0  0
 31 55  1  0  0  0  0
 31 56  1  0  0  0  0
 32 57  1  0  0  0  0
 32 58  1  0  0  0  0
 32 59  1  0  0  0  0
 34 36  2  0  0  0  0
 34 61  1  0  0  0  0
 35 36  1  0  0  0  0
 35 62  1  0  0  0  0
 36 63  1  0  0  0  0
M  END
> <PUBCHEM_COMPOUND_CID>
11751922

> <PUBCHEM_COMPOUND_CANONICALIZED>
1

> <PUBCHEM_CACTVS_COMPLEXITY>
833

> <PUBCHEM_CACTVS_HBOND_ACCEPTOR>
5

> <PUBCHEM_CACTVS_HBOND_DONOR>
2

> <PUBCHEM_CACTVS_ROTATABLE_BOND>
4

> <PUBCHEM_CACTVS_SUBSKEYS>
AAADceB7oAAAAAAAAAAAAAAAAAAAAWLFgAA8YMEAAAAAAFjB/gAAHgAYAAAADQjBngQ/0PfMEACqAzV3dACShCk1gqAZ2KE4ZNiIKPLA3dGEpQhongLIySccicCeyACCQAASAACQAQSAACQAAAAAAAAAAA==

> <PUBCHEM_IUPAC_OPENEYE_NAME>
3-isobutyl-19-methyl-7-(pyrimidin-2-ylamino)-3,13,19,20-tetrazahexacyclo[14.7.0.02,10.04,9.011,15.017,21]tricosa-1(16),2(10),4(9),5,7,11(15),17,20-octaen-14-one

> <PUBCHEM_IUPAC_CAS_NAME>
19-methyl-3-(2-methylpropyl)-7-(2-pyrimidinylamino)-3,13,19,20-tetrazahexacyclo[14.7.0.02,10.04,9.011,15.017,21]tricosa-1(16),2(10),4(9),5,7,11(15),17,20-octaen-14-one

> <PUBCHEM_IUPAC_NAME_MARKUP>
19-methyl-3-(2-methylpropyl)-7-(pyrimidin-2-ylamino)-3,13,19,20-tetrazahexacyclo[14.7.0.0<SUP>2,10</SUP>.0<SUP>4,9</SUP>.0<SUP>11,15</SUP>.0<SUP>17,21</SUP>]tricosa-1(16),2(10),4(9),5,7,11(15),17,20-octaen-14-one

> <PUBCHEM_IUPAC_NAME>
19-methyl-3-(2-methylpropyl)-7-(pyrimidin-2-ylamino)-3,13,19,20-tetrazahexacyclo[14.7.0.02,10.04,9.011,15.017,21]tricosa-1(16),2(10),4(9),5,7,11(15),17,20-octaen-14-one

> <PUBCHEM_IUPAC_SYSTEMATIC_NAME>
19-methyl-3-(2-methylpropyl)-7-(pyrimidin-2-ylamino)-3,13,19,20-tetrazahexacyclo[14.7.0.02,10.04,9.011,15.017,21]tricosa-1(16),2(10),4(9),5,7,11(15),17,20-octaen-14-one

> <PUBCHEM_IUPAC_TRADITIONAL_NAME>
3-isobutyl-19-methyl-7-(2-pyrimidylamino)-3,13,19,20-tetrazahexacyclo[14.7.0.02,10.04,9.011,15.017,21]tricosa-1(16),2(10),4(9),5,7,11(15),17,20-octaen-14-one

> <PUBCHEM_IUPAC_INCHI>
InChI=1S/C28H27N7O/c1-15(2)13-35-22-8-5-16(32-28-29-9-4-10-30-28)11-18(22)24-19-12-31-27(36)25(19)23-17(26(24)35)6-7-21-20(23)14-34(3)33-21/h4-5,8-11,14-15H,6-7,12-13H2,1-3H3,(H,31,36)(H,29,30,32)

> <PUBCHEM_IUPAC_INCHIKEY>
AEULIVPVIDOLIN-UHFFFAOYSA-N

> <PUBCHEM_XLOGP3_AA>
3.9

> <PUBCHEM_EXACT_MASS>
477.22770851

> <PUBCHEM_MOLECULAR_FORMULA>
C28H27N7O

> <PUBCHEM_MOLECULAR_WEIGHT>
477.6

> <PUBCHEM_OPENEYE_CAN_SMILES>
CC(C)CN1C2=C(C=C(C=C2)NC3=NC=CC=N3)C4=C1C5=C(C6=CN(N=C6CC5)C)C7=C4CNC7=O

> <PUBCHEM_OPENEYE_ISO_SMILES>
CC(C)CN1C2=C(C=C(C=C2)NC3=NC=CC=N3)C4=C1C5=C(C6=CN(N=C6CC5)C)C7=C4CNC7=O

> <PUBCHEM_CACTVS_TPSA>
89.7

> <PUBCHEM_MONOISOTOPIC_WEIGHT>
477.22770851

> <PUBCHEM_TOTAL_CHARGE>
0

> <PUBCHEM_HEAVY_ATOM_COUNT>
36

> <PUBCHEM_ATOM_DEF_STEREO_COUNT>
0

> <PUBCHEM_ATOM_UDEF_STEREO_COUNT>
0

> <PUBCHEM_BOND_DEF_STEREO_COUNT>
0

> <PUBCHEM_BOND_UDEF_STEREO_COUNT>
0

> <PUBCHEM_ISOTOPIC_ATOM_COUNT>
0

> <PUBCHEM_COMPONENT_COUNT>
1

> <PUBCHEM_CACTVS_TAUTO_COUNT>
-1

> <PUBCHEM_COORDINATE_TYPE>
1
5
255

> <PUBCHEM_BONDANNOTATIONS>
10  12  8
11  13  8
11  16  8
12  14  8
13  14  8
16  17  8
16  25  8
17  26  8
18  22  8
18  27  8
2  17  8
2  9  8
25  28  8
26  29  8
28  29  8
34  36  8
35  36  8
4  27  8
4  5  8
5  22  8
7  33  8
7  34  8
8  33  8
8  35  8
9  10  8
9  11  8

$$$$
46213929
  -OEChem-11282412102D

 58 62  0     0  0  0  0  0  0999 V2000
   12.8343   -2.7520    0.0000 Cl  0  0  0  0  0  0  0  0  0  0  0  0
    9.5416   -3.8282    0.0000 F   0  0  0  0  0  0  0  0  0  0  0  0
    4.1993    3.3282    0.0000 O   0  0  0  0  0  0  0  0  0  0  0  0
    5.9313    2.3282    0.0000 N   0  0  0  0  0  0  0  0  0  0  0  0
    7.6634   -0.6719    0.0000 N   0  0  0  0  0  0  0  0  0  0  0  0
    8.6096    0.6329    0.0000 N   0  0  0  0  0  0  0  0  0  0  0  0
    6.7974   -1.1718    0.0000 N   0  0  0  0  0  0  0  0  0  0  0  0
    5.0653   -1.1718    0.0000 N   0  0  0  0  0  0  0  0  0  0  0  0
    3.2857   -1.0786    0.0000 N   0  0  0  0  0  0  0  0  0  0  0  0
    2.6166   -0.3354    0.0000 N   0  0  0  0  0  0  0  0  0  0  0  0
    6.7974    1.8282    0.0000 C   0  0  0  0  0  0  0  0  0  0  0  0
    5.9313    3.3282    0.0000 C   0  0  0  0  0  0  0  0  0  0  0  0
    5.0653    1.8282    0.0000 C   0  0  0  0  0  0  0  0  0  0  0  0
    6.7974    0.8281    0.0000 C   0  0  0  0  0  0  0  0  0  0  0  0
    7.6634    0.3281    0.0000 C   0  0  0  0  0  0  0  0  0  0  0  0
    5.0653    3.8282    0.0000 C   0  0  0  0  0  0  0  0  0  0  0  0
    4.1993    2.3282    0.0000 C   0  0  0  0  0  0  0  0  0  0  0  0
    8.6096   -0.9766    0.0000 C   0  0  0  0  0  0  0  0  0  0  0  0
    5.9313    0.3281    0.0000 C   0  0  0  0  0  0  0  0  0  0  0  0
    9.1932   -0.1719    0.0000 C   0  0  0  0  0  0  0  0  0  0  0  0
    8.9203   -1.9271    0.0000 C   0  0  0  0  0  0  0  0  0  0  0  0
    5.9313   -0.6719    0.0000 C   0  0  0  0  0  0  0  0  0  0  0  0
    9.8988   -2.1333    0.0000 C   0  0  0  0  0  0  0  0  0  0  0  0
   10.1932   -0.1719    0.0000 C   0  0  0  0  0  0  0  0  0  0  0  0
   10.2094   -3.0838    0.0000 C   0  0  0  0  0  0  0  0  0  0  0  0
   10.5666   -1.3890    0.0000 C   0  0  0  0  0  0  0  0  0  0  0  0
    4.1993   -0.6719    0.0000 C   0  0  0  0  0  0  0  0  0  0  0  0
   11.1879   -3.2901    0.0000 C   0  0  0  0  0  0  0  0  0  0  0  0
   11.5451   -1.5952    0.0000 C   0  0  0  0  0  0  0  0  0  0  0  0
    4.0948    0.3227    0.0000 C   0  0  0  0  0  0  0  0  0  0  0  0
   11.8558   -2.5458    0.0000 C   0  0  0  0  0  0  0  0  0  0  0  0
    3.1166    0.5306    0.0000 C   0  0  0  0  0  0  0  0  0  0  0  0
    2.7099    1.4441    0.0000 C   0  0  0  0  0  0  0  0  0  0  0  0
    7.4079    1.7205    0.0000 H   0  0  0  0  0  0  0  0  0  0  0  0
    7.0094    2.4108    0.0000 H   0  0  0  0  0  0  0  0  0  0  0  0
    6.5419    3.2205    0.0000 H   0  0  0  0  0  0  0  0  0  0  0  0
    6.1434    3.9108    0.0000 H   0  0  0  0  0  0  0  0  0  0  0  0
    4.6668    1.3532    0.0000 H   0  0  0  0  0  0  0  0  0  0  0  0
    5.4638    1.3532    0.0000 H   0  0  0  0  0  0  0  0  0  0  0  0
    5.4638    4.3031    0.0000 H   0  0  0  0  0  0  0  0  0  0  0  0
    4.6668    4.3031    0.0000 H   0  0  0  0  0  0  0  0  0  0  0  0
    3.5887    2.4358    0.0000 H   0  0  0  0  0  0  0  0  0  0  0  0
    3.9872    1.7455    0.0000 H   0  0  0  0  0  0  0  0  0  0  0  0
    5.3944    0.6381    0.0000 H   0  0  0  0  0  0  0  0  0  0  0  0
    8.3064   -2.0145    0.0000 H   0  0  0  0  0  0  0  0  0  0  0  0
    8.8997   -2.5468    0.0000 H   0  0  0  0  0  0  0  0  0  0  0  0
   10.1932   -0.7919    0.0000 H   0  0  0  0  0  0  0  0  0  0  0  0
   10.8132   -0.1719    0.0000 H   0  0  0  0  0  0  0  0  0  0  0  0
   10.1932    0.4481    0.0000 H   0  0  0  0  0  0  0  0  0  0  0  0
    5.0653   -1.7918    0.0000 H   0  0  0  0  0  0  0  0  0  0  0  0
   10.3740   -0.7997    0.0000 H   0  0  0  0  0  0  0  0  0  0  0  0
   11.3805   -3.8794    0.0000 H   0  0  0  0  0  0  0  0  0  0  0  0
   11.9592   -1.1338    0.0000 H   0  0  0  0  0  0  0  0  0  0  0  0
    4.5555    0.7375    0.0000 H   0  0  0  0  0  0  0  0  0  0  0  0
    2.0000   -0.4003    0.0000 H   0  0  0  0  0  0  0  0  0  0  0  0
    3.2763    1.6963    0.0000 H   0  0  0  0  0  0  0  0  0  0  0  0
    2.4577    2.0105    0.0000 H   0  0  0  0  0  0  0  0  0  0  0  0
    2.1435    1.1920    0.0000 H   0  0  0  0  0  0  0  0  0  0  0  0
  1 31  1  0  0  0  0
  2 25  1  0  0  0  0
  3 16  1  0  0  0  0
  3 17  1  0  0  0  0
  4 11  1  0  0  0  0
  4 12  1  0  0  0  0
  4 13  1  0  0  0  0
  5  7  1  0  0  0  0
  5 15  1  0  0  0  0
  5 18  1  0  0  0  0
  6 15  2  0  0  0  0
  6 20  1  0  0  0  0
  7 22  2  0  0  0  0
  8 22  1  0  0  0  0
  8 27  1  0  0  0  0
  8 50  1  0  0  0  0
  9 10  1  0  0  0  0
  9 27  2  0  0  0  0
 10 32  1  0  0  0  0
 10 55  1  0  0  0  0
 11 14  1  0  0  0  0
 11 34  1  0  0  0  0
 11 35  1  0  0  0  0
 12 16  1  0  0  0  0
 12 36  1  0  0  0  0
 12 37  1  0  0  0  0
 13 17  1  0  0  0  0
 13 38  1  0  0  0  0
 13 39  1  0  0  0  0
 14 15  1  0  0  0  0
 14 19  2  0  0  0  0
 16 40  1  0  0  0  0
 16 41  1  0  0  0  0
 17 42  1  0  0  0  0
 17 43  1  0  0  0  0
 18 20  2  0  0  0  0
 18 21  1  0  0  0  0
 19 22  1  0  0  0  0
 19 44  1  0  0  0  0
 20 24  1  0  0  0  0
 21 23  1  0  0  0  0
 21 45  1  0  0  0  0
 21 46  1  0  0  0  0
 23 25  2  0  0  0  0
 23 26  1  0  0  0  0
 24 47  1  0  0  0  0
 24 48  1  0  0  0  0
 24 49  1  0  0  0  0
 25 28  1  0  0  0  0
 26 29  2  0  0  0  0
 26 51  1  0  0  0  0
 27 30  1  0  0  0  0
 28 31  2  0  0  0  0
 28 52  1  0  0  0  0
 29 31  1  0  0  0  0
 29 53  1  0  0  0  0
 30 32  2  0  0  0  0
 30 54  1  0  0  0  0
 32 33  1  0  0  0  0
 33 56  1  0  0  0  0
 33 57  1  0  0  0  0
 33 58  1  0  0  0  0
M  END
> <PUBCHEM_COMPOUND_CID>
46213929

> <PUBCHEM_COMPOUND_CANONICALIZED>
1

> <PUBCHEM_CACTVS_COMPLEXITY>
644

> <PUBCHEM_CACTVS_HBOND_ACCEPTOR>
7

> <PUBCHEM_CACTVS_HBOND_DONOR>
2

> <PUBCHEM_CACTVS_ROTATABLE_BOND>
6

> <PUBCHEM_CACTVS_SUBSKEYS>
AAADceB7oQAEAAAAAAAAAAAAAAAAAWLAAAA8WIAAAAAAAFgB/AAAHwIYAAAADArhny4zsJ/rFACiAyZiZACShC8hF6AduSA4dpiKaOLB29GXpAh4mALYyCcQgIAOBAAAAAAAAAAIAAAAAAAAAAAAAAAAAA==

> <PUBCHEM_IUPAC_OPENEYE_NAME>
3-[(4-chloro-2-fluoro-phenyl)methyl]-2-methyl-N-(5-methyl-1H-pyrazol-3-yl)-8-(morpholinomethyl)imidazo[1,2-b]pyridazin-6-amine

> <PUBCHEM_IUPAC_CAS_NAME>
3-[(4-chloro-2-fluorophenyl)methyl]-2-methyl-N-(5-methyl-1H-pyrazol-3-yl)-8-(4-morpholinylmethyl)-6-imidazo[1,2-b]pyridazinamine

> <PUBCHEM_IUPAC_NAME_MARKUP>
3-[(4-chloro-2-fluorophenyl)methyl]-2-methyl-<I>N</I>-(5-methyl-1<I>H</I>-pyrazol-3-yl)-8-(morpholin-4-ylmethyl)imidazo[1,2-b]pyridazin-6-amine

> <PUBCHEM_IUPAC_NAME>
3-[(4-chloro-2-fluorophenyl)methyl]-2-methyl-N-(5-methyl-1H-pyrazol-3-yl)-8-(morpholin-4-ylmethyl)imidazo[1,2-b]pyridazin-6-amine

> <PUBCHEM_IUPAC_SYSTEMATIC_NAME>
3-[(4-chloranyl-2-fluoranyl-phenyl)methyl]-2-methyl-N-(5-methyl-1H-pyrazol-3-yl)-8-(morpholin-4-ylmethyl)imidazo[1,2-b]pyridazin-6-amine

> <PUBCHEM_IUPAC_TRADITIONAL_NAME>
[3-(4-chloro-2-fluoro-benzyl)-2-methyl-8-(morpholinomethyl)imidazo[1,2-b]pyridazin-6-yl]-(5-methyl-1H-pyrazol-3-yl)amine

> <PUBCHEM_IUPAC_INCHI>
InChI=1S/C23H25ClFN7O/c1-14-9-21(29-28-14)27-22-11-17(13-31-5-7-33-8-6-31)23-26-15(2)20(32(23)30-22)10-16-3-4-18(24)12-19(16)25/h3-4,9,11-12H,5-8,10,13H2,1-2H3,(H2,27,28,29,30)

> <PUBCHEM_IUPAC_INCHIKEY>
SQSZANZGUXWJEA-UHFFFAOYSA-N

> <PUBCHEM_XLOGP3_AA>
3.8

> <PUBCHEM_EXACT_MASS>
469.1793143

> <PUBCHEM_MOLECULAR_FORMULA>
C23H25ClFN7O

> <PUBCHEM_MOLECULAR_WEIGHT>
469.9

> <PUBCHEM_OPENEYE_CAN_SMILES>
CC1=CC(=NN1)NC2=NN3C(=C(N=C3C(=C2)CN4CCOCC4)C)CC5=C(C=C(C=C5)Cl)F

> <PUBCHEM_OPENEYE_ISO_SMILES>
CC1=CC(=NN1)NC2=NN3C(=C(N=C3C(=C2)CN4CCOCC4)C)CC5=C(C=C(C=C5)Cl)F

> <PUBCHEM_CACTVS_TPSA>
83.4

> <PUBCHEM_MONOISOTOPIC_WEIGHT>
469.1793143

> <PUBCHEM_TOTAL_CHARGE>
0

> <PUBCHEM_HEAVY_ATOM_COUNT>
33

> <PUBCHEM_ATOM_DEF_STEREO_COUNT>
0

> <PUBCHEM_ATOM_UDEF_STEREO_COUNT>
0

> <PUBCHEM_BOND_DEF_STEREO_COUNT>
0

> <PUBCHEM_BOND_UDEF_STEREO_COUNT>
0

> <PUBCHEM_ISOTOPIC_ATOM_COUNT>
0

> <PUBCHEM_COMPONENT_COUNT>
1

> <PUBCHEM_CACTVS_TAUTO_COUNT>
-1

> <PUBCHEM_COORDINATE_TYPE>
1
5
255

> <PUBCHEM_BONDANNOTATIONS>
10  32  8
14  15  8
14  19  8
18  20  8
19  22  8
23  25  8
23  26  8
25  28  8
26  29  8
27  30  8
28  31  8
29  31  8
30  32  8
5  15  8
5  18  8
5  7  8
6  15  8
6  20  8
7  22  8
9  10  8
9  27  8

$$$$
118295624
  -OEChem-11282412102D

 68 71  0     0  0  0  0  0  0999 V2000
    6.3301    4.0000    0.0000 Cl  0  0  0  0  0  0  0  0  0  0  0  0
    4.5981    1.0000    0.0000 Cl  0  0  0  0  0  0  0  0  0  0  0  0
   12.3923   -3.5000    0.0000 O   0  0  0  0  0  0  0  0  0  0  0  0
    5.4641    0.5000    0.0000 O   0  0  0  0  0  0  0  0  0  0  0  0
    2.8660    2.0000    0.0000 O   0  0  0  0  0  0  0  0  0  0  0  0
    4.5981    5.0000    0.0000 O   0  0  0  0  0  0  0  0  0  0  0  0
    8.9282   -2.5000    0.0000 N   0  0  0  0  0  0  0  0  0  0  0  0
   10.6603   -3.5000    0.0000 N   0  0  0  0  0  0  0  0  0  0  0  0
    7.1962    0.5000    0.0000 N   0  0  0  0  0  0  0  0  0  0  0  0
    8.9561    0.4653    0.0000 N   0  0  0  0  0  0  0  0  0  0  0  0
    9.8622    2.0208    0.0000 N   0  0  0  0  0  0  0  0  0  0  0  0
   10.7263    0.4758    0.0000 N   0  0  0  0  0  0  0  0  0  0  0  0
    8.9282   -3.5000    0.0000 C   0  0  0  0  0  0  0  0  0  0  0  0
    9.7942   -2.0000    0.0000 C   0  0  0  0  0  0  0  0  0  0  0  0
    8.0622   -2.0000    0.0000 C   0  0  0  0  0  0  0  0  0  0  0  0
    9.7942   -4.0000    0.0000 C   0  0  0  0  0  0  0  0  0  0  0  0
   10.6603   -2.5000    0.0000 C   0  0  0  0  0  0  0  0  0  0  0  0
    8.0622   -1.0000    0.0000 C   0  0  0  0  0  0  0  0  0  0  0  0
    7.1962   -0.5000    0.0000 C   0  0  0  0  0  0  0  0  0  0  0  0
   11.5263   -4.0000    0.0000 C   0  0  0  0  0  0  0  0  0  0  0  0
    8.0622    1.0000    0.0000 C   0  0  0  0  0  0  0  0  0  0  0  0
    6.3301    1.0000    0.0000 C   0  0  0  0  0  0  0  0  0  0  0  0
    6.3301    2.0000    0.0000 C   0  0  0  0  0  0  0  0  0  0  0  0
    8.0622    2.0000    0.0000 C   0  0  0  0  0  0  0  0  0  0  0  0
    7.1962    2.5000    0.0000 C   0  0  0  0  0  0  0  0  0  0  0  0
   11.5263   -5.0000    0.0000 C   0  0  0  0  0  0  0  0  0  0  0  0
    5.4641    2.5000    0.0000 C   0  0  0  0  0  0  0  0  0  0  0  0
    8.9561    2.5347    0.0000 C   0  0  0  0  0  0  0  0  0  0  0  0
    9.8622    0.9792    0.0000 C   0  0  0  0  0  0  0  0  0  0  0  0
    5.4641    3.5000    0.0000 C   0  0  0  0  0  0  0  0  0  0  0  0
    4.5981    2.0000    0.0000 C   0  0  0  0  0  0  0  0  0  0  0  0
   12.3923   -5.5000    0.0000 C   0  0  0  0  0  0  0  0  0  0  0  0
    3.7320    2.5000    0.0000 C   0  0  0  0  0  0  0  0  0  0  0  0
    4.5981    4.0000    0.0000 C   0  0  0  0  0  0  0  0  0  0  0  0
    3.7320    3.5000    0.0000 C   0  0  0  0  0  0  0  0  0  0  0  0
   11.5942    0.9725    0.0000 C   0  0  0  0  0  0  0  0  0  0  0  0
    2.0000    2.5000    0.0000 C   0  0  0  0  0  0  0  0  0  0  0  0
    3.7320    5.5000    0.0000 C   0  0  0  0  0  0  0  0  0  0  0  0
    8.3176   -3.3923    0.0000 H   0  0  0  0  0  0  0  0  0  0  0  0
    8.7162   -4.0826    0.0000 H   0  0  0  0  0  0  0  0  0  0  0  0
   10.1928   -1.5250    0.0000 H   0  0  0  0  0  0  0  0  0  0  0  0
    9.3957   -1.5250    0.0000 H   0  0  0  0  0  0  0  0  0  0  0  0
    7.4516   -1.8923    0.0000 H   0  0  0  0  0  0  0  0  0  0  0  0
    7.8501   -2.5826    0.0000 H   0  0  0  0  0  0  0  0  0  0  0  0
    9.3957   -4.4750    0.0000 H   0  0  0  0  0  0  0  0  0  0  0  0
   10.1928   -4.4750    0.0000 H   0  0  0  0  0  0  0  0  0  0  0  0
   11.2708   -2.6077    0.0000 H   0  0  0  0  0  0  0  0  0  0  0  0
   10.8723   -1.9174    0.0000 H   0  0  0  0  0  0  0  0  0  0  0  0
    8.6728   -1.1077    0.0000 H   0  0  0  0  0  0  0  0  0  0  0  0
    8.2742   -0.4174    0.0000 H   0  0  0  0  0  0  0  0  0  0  0  0
    6.5856   -0.3923    0.0000 H   0  0  0  0  0  0  0  0  0  0  0  0
    6.9841   -1.0826    0.0000 H   0  0  0  0  0  0  0  0  0  0  0  0
    7.1962    3.1200    0.0000 H   0  0  0  0  0  0  0  0  0  0  0  0
   10.9893   -5.3100    0.0000 H   0  0  0  0  0  0  0  0  0  0  0  0
    8.9490    3.1546    0.0000 H   0  0  0  0  0  0  0  0  0  0  0  0
   12.3923   -6.1200    0.0000 H   0  0  0  0  0  0  0  0  0  0  0  0
   12.9292   -5.1900    0.0000 H   0  0  0  0  0  0  0  0  0  0  0  0
    3.1951    3.8100    0.0000 H   0  0  0  0  0  0  0  0  0  0  0  0
   10.7239   -0.1441    0.0000 H   0  0  0  0  0  0  0  0  0  0  0  0
   11.9022    0.4344    0.0000 H   0  0  0  0  0  0  0  0  0  0  0  0
   12.1324    1.2804    0.0000 H   0  0  0  0  0  0  0  0  0  0  0  0
   11.2863    1.5106    0.0000 H   0  0  0  0  0  0  0  0  0  0  0  0
    2.3100    3.0369    0.0000 H   0  0  0  0  0  0  0  0  0  0  0  0
    1.4631    2.8100    0.0000 H   0  0  0  0  0  0  0  0  0  0  0  0
    1.6900    1.9631    0.0000 H   0  0  0  0  0  0  0  0  0  0  0  0
    4.0420    6.0369    0.0000 H   0  0  0  0  0  0  0  0  0  0  0  0
    3.1951    5.8100    0.0000 H   0  0  0  0  0  0  0  0  0  0  0  0
    3.4220    4.9631    0.0000 H   0  0  0  0  0  0  0  0  0  0  0  0
  1 30  1  0  0  0  0
  2 31  1  0  0  0  0
  3 20  2  0  0  0  0
  4 22  2  0  0  0  0
  5 33  1  0  0  0  0
  5 37  1  0  0  0  0
  6 34  1  0  0  0  0
  6 38  1  0  0  0  0
  7 13  1  0  0  0  0
  7 14  1  0  0  0  0
  7 15  1  0  0  0  0
  8 16  1  0  0  0  0
  8 17  1  0  0  0  0
  8 20  1  0  0  0  0
  9 19  1  0  0  0  0
  9 21  1  0  0  0  0
  9 22  1  0  0  0  0
 10 21  2  0  0  0  0
 10 29  1  0  0  0  0
 11 28  1  0  0  0  0
 11 29  2  0  0  0  0
 12 29  1  0  0  0  0
 12 36  1  0  0  0  0
 12 59  1  0  0  0  0
 13 16  1  0  0  0  0
 13 39  1  0  0  0  0
 13 40  1  0  0  0  0
 14 17  1  0  0  0  0
 14 41  1  0  0  0  0
 14 42  1  0  0  0  0
 15 18  1  0  0  0  0
 15 43  1  0  0  0  0
 15 44  1  0  0  0  0
 16 45  1  0  0  0  0
 16 46  1  0  0  0  0
 17 47  1  0  0  0  0
 17 48  1  0  0  0  0
 18 19  1  0  0  0  0
 18 49  1  0  0  0  0
 18 50  1  0  0  0  0
 19 51  1  0  0  0  0
 19 52  1  0  0  0  0
 20 26  1  0  0  0  0
 21 24  1  0  0  0  0
 22 23  1  0  0  0  0
 23 25  2  0  0  0  0
 23 27  1  0  0  0  0
 24 25  1  0  0  0  0
 24 28  2  0  0  0  0
 25 53  1  0  0  0  0
 26 32  2  0  0  0  0
 26 54  1  0  0  0  0
 27 30  2  0  0  0  0
 27 31  1  0  0  0  0
 28 55  1  0  0  0  0
 30 34  1  0  0  0  0
 31 33  2  0  0  0  0
 32 56  1  0  0  0  0
 32 57  1  0  0  0  0
 33 35  1  0  0  0  0
 34 35  2  0  0  0  0
 35 58  1  0  0  0  0
 36 60  1  0  0  0  0
 36 61  1  0  0  0  0
 36 62  1  0  0  0  0
 37 63  1  0  0  0  0
 37 64  1  0  0  0  0
 37 65  1  0  0  0  0
 38 66  1  0  0  0  0
 38 67  1  0  0  0  0
 38 68  1  0  0  0  0
M  END
> <PUBCHEM_COMPOUND_CID>
118295624

> <PUBCHEM_COMPOUND_CANONICALIZED>
1

> <PUBCHEM_CACTVS_COMPLEXITY>
870

> <PUBCHEM_CACTVS_HBOND_ACCEPTOR>
8

> <PUBCHEM_CACTVS_HBOND_DONOR>
1

> <PUBCHEM_CACTVS_ROTATABLE_BOND>
9

> <PUBCHEM_CACTVS_SUBSKEYS>
AAADceB7uAAGAAAAAAAAAAAAAAAAAAAAAAA8WIEAAAAAAACBwAAAHgIQAAAADAbBmiY/tpfIFACoAjN3dACCiCkxJOAJ2KEuT9iMb7PF/1uUNCgtxxfIqaeY/L7OACABCACBCAAAQAIQAQIQAAAAAAAAAA==

> <PUBCHEM_IUPAC_OPENEYE_NAME>
6-(2,6-dichloro-3,5-dimethoxy-phenyl)-2-(methylamino)-8-[3-(4-prop-2-enoylpiperazin-1-yl)propyl]pyrido[2,3-d]pyrimidin-7-one

> <PUBCHEM_IUPAC_CAS_NAME>
6-(2,6-dichloro-3,5-dimethoxyphenyl)-2-(methylamino)-8-[3-[4-(1-oxoprop-2-enyl)-1-piperazinyl]propyl]-7-pyrido[2,3-d]pyrimidinone

> <PUBCHEM_IUPAC_NAME_MARKUP>
6-(2,6-dichloro-3,5-dimethoxyphenyl)-2-(methylamino)-8-[3-(4-prop-2-enoylpiperazin-1-yl)propyl]pyrido[2,3-d]pyrimidin-7-one

> <PUBCHEM_IUPAC_NAME>
6-(2,6-dichloro-3,5-dimethoxyphenyl)-2-(methylamino)-8-[3-(4-prop-2-enoylpiperazin-1-yl)propyl]pyrido[2,3-d]pyrimidin-7-one

> <PUBCHEM_IUPAC_SYSTEMATIC_NAME>
6-[2,6-bis(chloranyl)-3,5-dimethoxy-phenyl]-2-(methylamino)-8-[3-(4-prop-2-enoylpiperazin-1-yl)propyl]pyrido[2,3-d]pyrimidin-7-one

> <PUBCHEM_IUPAC_TRADITIONAL_NAME>
8-[3-(4-acryloylpiperazino)propyl]-6-(2,6-dichloro-3,5-dimethoxy-phenyl)-2-(methylamino)pyrido[2,3-d]pyrimidin-7-one

> <PUBCHEM_IUPAC_INCHI>
InChI=1S/C26H30Cl2N6O4/c1-5-20(35)33-11-9-32(10-12-33)7-6-8-34-24-16(15-30-26(29-2)31-24)13-17(25(34)36)21-22(27)18(37-3)14-19(38-4)23(21)28/h5,13-15H,1,6-12H2,2-4H3,(H,29,30,31)

> <PUBCHEM_IUPAC_INCHIKEY>
PUIXMSRTTHLNKI-UHFFFAOYSA-N

> <PUBCHEM_XLOGP3_AA>
3.5

> <PUBCHEM_EXACT_MASS>
560.1705588

> <PUBCHEM_MOLECULAR_FORMULA>
C26H30Cl2N6O4

> <PUBCHEM_MOLECULAR_WEIGHT>
561.5

> <PUBCHEM_OPENEYE_CAN_SMILES>
CNC1=NC=C2C=C(C(=O)N(C2=N1)CCCN3CCN(CC3)C(=O)C=C)C4=C(C(=CC(=C4Cl)OC)OC)Cl

> <PUBCHEM_OPENEYE_ISO_SMILES>
CNC1=NC=C2C=C(C(=O)N(C2=N1)CCCN3CCN(CC3)C(=O)C=C)C4=C(C(=CC(=C4Cl)OC)OC)Cl

> <PUBCHEM_CACTVS_TPSA>
100

> <PUBCHEM_MONOISOTOPIC_WEIGHT>
560.1705588

> <PUBCHEM_TOTAL_CHARGE>
0

> <PUBCHEM_HEAVY_ATOM_COUNT>
38

> <PUBCHEM_ATOM_DEF_STEREO_COUNT>
0

> <PUBCHEM_ATOM_UDEF_STEREO_COUNT>
0

> <PUBCHEM_BOND_DEF_STEREO_COUNT>
0

> <PUBCHEM_BOND_UDEF_STEREO_COUNT>
0

> <PUBCHEM_ISOTOPIC_ATOM_COUNT>
0

> <PUBCHEM_COMPONENT_COUNT>
1

> <PUBCHEM_CACTVS_TAUTO_COUNT>
-1

> <PUBCHEM_COORDINATE_TYPE>
1
5
255

> <PUBCHEM_BONDANNOTATIONS>
10  21  8
10  29  8
11  28  8
11  29  8
21  24  8
22  23  8
23  25  8
24  25  8
24  28  8
27  30  8
27  31  8
30  34  8
31  33  8
33  35  8
34  35  8
9  21  8
9  22  8

$$$$
71226662
  -OEChem-11282412102D

 58 62  0     1  0  0  0  0  0999 V2000
    2.9940    2.9503    0.0000 O   0  0  0  0  0  0  0  0  0  0  0  0
    5.3460   -4.1027    0.0000 O   0  0  0  0  0  0  0  0  0  0  0  0
    4.4955    3.8137    0.0000 N   0  0  0  0  0  0  0  0  0  0  0  0
    3.8250    1.7484    0.0000 N   0  0  0  0  0  0  0  0  0  0  0  0
    5.3548    1.2484    0.0000 N   0  0  0  0  0  0  0  0  0  0  0  0
    2.0930    0.7485    0.0000 N   0  0  0  0  0  0  0  0  0  0  0  0
    2.9590   -0.7515    0.0000 N   0  0  0  0  0  0  0  0  0  0  0  0
    6.9924   -3.5646    0.0000 N   0  0  0  0  0  0  0  0  0  0  0  0
    8.2816   -4.7213    0.0000 N   0  0  0  0  0  0  0  0  0  0  0  0
    5.0819    3.0037    0.0000 C   0  0  1  0  0  0  0  0  0  0  0  0
    6.0335    3.3111    0.0000 C   0  0  0  0  0  0  0  0  0  0  0  0
    6.0352    4.3111    0.0000 C   0  0  0  0  0  0  0  0  0  0  0  0
    5.0847    4.6217    0.0000 C   0  0  0  0  0  0  0  0  0  0  0  0
    4.7712    2.0532    0.0000 C   0  0  0  0  0  0  0  0  0  0  0  0
    3.8250    0.7485    0.0000 C   0  0  0  0  0  0  0  0  0  0  0  0
    3.4955    3.8155    0.0000 C   0  0  0  0  0  0  0  0  0  0  0  0
    4.7712    0.4437    0.0000 C   0  0  0  0  0  0  0  0  0  0  0  0
    2.9590    2.2484    0.0000 C   0  0  0  0  0  0  0  0  0  0  0  0
    2.9590    0.2485    0.0000 C   0  0  0  0  0  0  0  0  0  0  0  0
    5.0819   -0.5068    0.0000 C   0  0  0  0  0  0  0  0  0  0  0  0
    2.0930    1.7484    0.0000 C   0  0  0  0  0  0  0  0  0  0  0  0
    2.9970    4.6824    0.0000 C   0  0  0  0  0  0  0  0  0  0  0  0
    6.0604   -0.7130    0.0000 C   0  0  0  0  0  0  0  0  0  0  0  0
    4.4140   -1.2511    0.0000 C   0  0  0  0  0  0  0  0  0  0  0  0
    6.3710   -1.6635    0.0000 C   0  0  0  0  0  0  0  0  0  0  0  0
    4.7247   -2.2016    0.0000 C   0  0  0  0  0  0  0  0  0  0  0  0
    5.7032   -2.4078    0.0000 C   0  0  0  0  0  0  0  0  0  0  0  0
    2.4985    5.5492    0.0000 C   0  0  0  0  0  0  0  0  0  0  0  0
    6.0139   -3.3584    0.0000 C   0  0  0  0  0  0  0  0  0  0  0  0
    2.0000    6.4161    0.0000 C   0  0  0  0  0  0  0  0  0  0  0  0
    7.3030   -4.5151    0.0000 C   0  0  0  0  0  0  0  0  0  0  0  0
    6.6352   -5.2594    0.0000 C   0  0  0  0  0  0  0  0  0  0  0  0
    6.9459   -6.2099    0.0000 C   0  0  0  0  0  0  0  0  0  0  0  0
    8.5922   -5.6718    0.0000 C   0  0  0  0  0  0  0  0  0  0  0  0
    7.9244   -6.4161    0.0000 C   0  0  0  0  0  0  0  0  0  0  0  0
    4.2421    2.8722    0.0000 H   0  0  0  0  0  0  0  0  0  0  0  0
    6.1613    2.7044    0.0000 H   0  0  0  0  0  0  0  0  0  0  0  0
    6.6502    3.3748    0.0000 H   0  0  0  0  0  0  0  0  0  0  0  0
    6.6517    4.2452    0.0000 H   0  0  0  0  0  0  0  0  0  0  0  0
    6.1652    4.9173    0.0000 H   0  0  0  0  0  0  0  0  0  0  0  0
    5.3378    5.1877    0.0000 H   0  0  0  0  0  0  0  0  0  0  0  0
    4.5483    4.9327    0.0000 H   0  0  0  0  0  0  0  0  0  0  0  0
    2.9590    2.8684    0.0000 H   0  0  0  0  0  0  0  0  0  0  0  0
    1.5560    2.0584    0.0000 H   0  0  0  0  0  0  0  0  0  0  0  0
    6.4744   -0.2516    0.0000 H   0  0  0  0  0  0  0  0  0  0  0  0
    3.8074   -1.1232    0.0000 H   0  0  0  0  0  0  0  0  0  0  0  0
    2.4220   -1.0616    0.0000 H   0  0  0  0  0  0  0  0  0  0  0  0
    3.4959   -1.0616    0.0000 H   0  0  0  0  0  0  0  0  0  0  0  0
    6.9777   -1.7914    0.0000 H   0  0  0  0  0  0  0  0  0  0  0  0
    4.3106   -2.6631    0.0000 H   0  0  0  0  0  0  0  0  0  0  0  0
    2.5375    6.7252    0.0000 H   0  0  0  0  0  0  0  0  0  0  0  0
    1.6909    6.9536    0.0000 H   0  0  0  0  0  0  0  0  0  0  0  0
    1.4625    6.1071    0.0000 H   0  0  0  0  0  0  0  0  0  0  0  0
    7.4064   -3.1031    0.0000 H   0  0  0  0  0  0  0  0  0  0  0  0
    6.0285   -5.1315    0.0000 H   0  0  0  0  0  0  0  0  0  0  0  0
    6.5318   -6.6714    0.0000 H   0  0  0  0  0  0  0  0  0  0  0  0
    9.1989   -5.7997    0.0000 H   0  0  0  0  0  0  0  0  0  0  0  0
    8.1170   -7.0055    0.0000 H   0  0  0  0  0  0  0  0  0  0  0  0
  1 16  2  0  0  0  0
  2 29  2  0  0  0  0
  3 10  1  0  0  0  0
  3 13  1  0  0  0  0
  3 16  1  0  0  0  0
  4 14  1  0  0  0  0
  4 15  1  0  0  0  0
  4 18  1  0  0  0  0
  5 14  2  0  0  0  0
  5 17  1  0  0  0  0
  6 19  2  0  0  0  0
  6 21  1  0  0  0  0
  7 19  1  0  0  0  0
  7 47  1  0  0  0  0
  7 48  1  0  0  0  0
  8 29  1  0  0  0  0
  8 31  1  0  0  0  0
  8 54  1  0  0  0  0
  9 31  1  0  0  0  0
  9 34  2  0  0  0  0
 10 11  1  0  0  0  0
 10 14  1  0  0  0  0
 10 36  1  6  0  0  0
 11 12  1  0  0  0  0
 11 37  1  0  0  0  0
 11 38  1  0  0  0  0
 12 13  1  0  0  0  0
 12 39  1  0  0  0  0
 12 40  1  0  0  0  0
 13 41  1  0  0  0  0
 13 42  1  0  0  0  0
 15 17  2  0  0  0  0
 15 19  1  0  0  0  0
 16 22  1  0  0  0  0
 17 20  1  0  0  0  0
 18 21  2  0  0  0  0
 18 43  1  0  0  0  0
 20 23  2  0  0  0  0
 20 24  1  0  0  0  0
 21 44  1  0  0  0  0
 22 28  3  0  0  0  0
 23 25  1  0  0  0  0
 23 45  1  0  0  0  0
 24 26  2  0  0  0  0
 24 46  1  0  0  0  0
 25 27  2  0  0  0  0
 25 49  1  0  0  0  0
 26 27  1  0  0  0  0
 26 50  1  0  0  0  0
 27 29  1  0  0  0  0
 28 30  1  0  0  0  0
 30 51  1  0  0  0  0
 30 52  1  0  0  0  0
 30 53  1  0  0  0  0
 31 32  2  0  0  0  0
 32 33  1  0  0  0  0
 32 55  1  0  0  0  0
 33 35  2  0  0  0  0
 33 56  1  0  0  0  0
 34 35  1  0  0  0  0
 34 57  1  0  0  0  0
 35 58  1  0  0  0  0
M  END
> <PUBCHEM_COMPOUND_CID>
71226662

> <PUBCHEM_COMPOUND_CANONICALIZED>
1

> <PUBCHEM_CACTVS_COMPLEXITY>
845

> <PUBCHEM_CACTVS_HBOND_ACCEPTOR>
6

> <PUBCHEM_CACTVS_HBOND_DONOR>
2

> <PUBCHEM_CACTVS_ROTATABLE_BOND>
4

> <PUBCHEM_CACTVS_SUBSKEYS>
AAADceB7sAAAAAAAAAAAAAAAAAAAAWLAAAA8WIAAAAAAAFgB/AAAHgAQAAAADCjBnwQ/8LfMGADoEzd3dACCgC01EqAJ2CE4dNiIaPLA3dGUJQholwLIyacYiMCOQAAAAAAAAACAAAAAAAAAAAAAAAAAAA==

> <PUBCHEM_IUPAC_OPENEYE_NAME>
4-[8-amino-3-[(2S)-1-but-2-ynoylpyrrolidin-2-yl]imidazo[1,5-a]pyrazin-1-yl]-N-(2-pyridyl)benzamide

> <PUBCHEM_IUPAC_CAS_NAME>
4-[8-amino-3-[(2S)-1-(1-oxobut-2-ynyl)-2-pyrrolidinyl]-1-imidazo[1,5-a]pyrazinyl]-N-(2-pyridinyl)benzamide

> <PUBCHEM_IUPAC_NAME_MARKUP>
4-[8-amino-3-[(2<I>S</I>)-1-but-2-ynoylpyrrolidin-2-yl]imidazo[1,5-a]pyrazin-1-yl]-<I>N</I>-pyridin-2-ylbenzamide

> <PUBCHEM_IUPAC_NAME>
4-[8-amino-3-[(2S)-1-but-2-ynoylpyrrolidin-2-yl]imidazo[1,5-a]pyrazin-1-yl]-N-pyridin-2-ylbenzamide

> <PUBCHEM_IUPAC_SYSTEMATIC_NAME>
4-[8-azanyl-3-[(2S)-1-but-2-ynoylpyrrolidin-2-yl]imidazo[1,5-a]pyrazin-1-yl]-N-pyridin-2-yl-benzamide

> <PUBCHEM_IUPAC_TRADITIONAL_NAME>
4-[8-amino-3-[(2S)-1-but-2-ynoylpyrrolidin-2-yl]imidazo[1,5-a]pyrazin-1-yl]-N-(2-pyridyl)benzamide

> <PUBCHEM_IUPAC_INCHI>
InChI=1S/C26H23N7O2/c1-2-6-21(34)32-15-5-7-19(32)25-31-22(23-24(27)29-14-16-33(23)25)17-9-11-18(12-10-17)26(35)30-20-8-3-4-13-28-20/h3-4,8-14,16,19H,5,7,15H2,1H3,(H2,27,29)(H,28,30,35)/t19-/m0/s1

> <PUBCHEM_IUPAC_INCHIKEY>
WDENQIQQYWYTPO-IBGZPJMESA-N

> <PUBCHEM_XLOGP3_AA>
3

> <PUBCHEM_EXACT_MASS>
465.19132300

> <PUBCHEM_MOLECULAR_FORMULA>
C26H23N7O2

> <PUBCHEM_MOLECULAR_WEIGHT>
465.5

> <PUBCHEM_OPENEYE_CAN_SMILES>
CC#CC(=O)N1CCCC1C2=NC(=C3N2C=CN=C3N)C4=CC=C(C=C4)C(=O)NC5=CC=CC=N5

> <PUBCHEM_OPENEYE_ISO_SMILES>
CC#CC(=O)N1CCC[C@H]1C2=NC(=C3N2C=CN=C3N)C4=CC=C(C=C4)C(=O)NC5=CC=CC=N5

> <PUBCHEM_CACTVS_TPSA>
119

> <PUBCHEM_MONOISOTOPIC_WEIGHT>
465.19132300

> <PUBCHEM_TOTAL_CHARGE>
0

> <PUBCHEM_HEAVY_ATOM_COUNT>
35

> <PUBCHEM_ATOM_DEF_STEREO_COUNT>
1

> <PUBCHEM_ATOM_UDEF_STEREO_COUNT>
0

> <PUBCHEM_BOND_DEF_STEREO_COUNT>
0

> <PUBCHEM_BOND_UDEF_STEREO_COUNT>
0

> <PUBCHEM_ISOTOPIC_ATOM_COUNT>
0

> <PUBCHEM_COMPONENT_COUNT>
1

> <PUBCHEM_CACTVS_TAUTO_COUNT>
-1

> <PUBCHEM_COORDINATE_TYPE>
1
5
255

> <PUBCHEM_BONDANNOTATIONS>
10  36  6
15  17  8
15  19  8
18  21  8
20  23  8
20  24  8
23  25  8
24  26  8
25  27  8
26  27  8
31  32  8
32  33  8
33  35  8
34  35  8
4  14  8
4  15  8
4  18  8
5  14  8
5  17  8
6  19  8
6  21  8
9  31  8
9  34  8

$$$$
11952856
  -OEChem-11282412102D

 54 57  0     1  0  0  0  0  0999 V2000
    5.8738   -4.1399    0.0000 Br  0  0  0  0  0  0  0  0  0  0  0  0
    4.9672    3.0883    0.0000 O   0  0  0  0  0  0  0  0  0  0  0  0
    3.7841    3.6399    0.0000 O   0  0  0  0  0  0  0  0  0  0  0  0
    5.6019    0.6791    0.0000 N   0  0  3  0  0  0  0  0  0  0  0  0
    3.4830   -1.3500    0.0000 N   0  0  0  0  0  0  0  0  0  0  0  0
    2.9021   -0.9294    0.0000 N   0  0  0  0  0  0  0  0  0  0  0  0
    2.0080    0.6330    0.0000 N   0  0  0  0  0  0  0  0  0  0  0  0
    7.1519    1.4522    0.0000 C   0  0  0  0  0  0  0  0  0  0  0  0
    6.6001    0.6182    0.0000 C   0  0  0  0  0  0  0  0  0  0  0  0
    6.3179    2.0040    0.0000 C   0  0  0  0  0  0  0  0  0  0  0  0
    6.3788    3.0021    0.0000 C   0  0  0  0  0  0  0  0  0  0  0  0
    5.0501   -0.1549    0.0000 C   0  0  0  0  0  0  0  0  0  0  0  0
    5.2496   -1.1348    0.0000 C   0  0  0  0  0  0  0  0  0  0  0  0
    5.7161    3.7510    0.0000 C   0  0  0  0  0  0  0  0  0  0  0  0
    5.1556    1.5740    0.0000 C   0  0  0  0  0  0  0  0  0  0  0  0
    4.5008   -1.7975    0.0000 C   0  0  0  0  0  0  0  0  0  0  0  0
    6.2425   -1.4499    0.0000 C   0  0  0  0  0  0  0  0  0  0  0  0
    3.7841    0.6399    0.0000 C   0  0  0  0  0  0  0  0  0  0  0  0
    4.6501    2.1399    0.0000 C   0  0  0  0  0  0  0  0  0  0  0  0
    3.8001   -0.4016    0.0000 C   0  0  0  0  0  0  0  0  0  0  0  0
    4.6928   -2.8213    0.0000 C   0  0  0  0  0  0  0  0  0  0  0  0
    4.6501    1.1399    0.0000 C   0  0  0  0  0  0  0  0  0  0  0  0
    2.9180    1.1399    0.0000 C   0  0  0  0  0  0  0  0  0  0  0  0
    3.7841    2.6399    0.0000 C   0  0  0  0  0  0  0  0  0  0  0  0
    6.4581   -2.4689    0.0000 C   0  0  0  0  0  0  0  0  0  0  0  0
    5.6781   -3.1592    0.0000 C   0  0  0  0  0  0  0  0  0  0  0  0
    2.9180    2.1399    0.0000 C   0  0  0  0  0  0  0  0  0  0  0  0
    2.0000   -0.4086    0.0000 C   0  0  0  0  0  0  0  0  0  0  0  0
    2.9180    4.1399    0.0000 C   0  0  0  0  0  0  0  0  0  0  0  0
    7.6690    1.1100    0.0000 H   0  0  0  0  0  0  0  0  0  0  0  0
    7.4940    1.9692    0.0000 H   0  0  0  0  0  0  0  0  0  0  0  0
    6.4554    0.0153    0.0000 H   0  0  0  0  0  0  0  0  0  0  0  0
    7.1687    0.3711    0.0000 H   0  0  0  0  0  0  0  0  0  0  0  0
    5.7150    2.1486    0.0000 H   0  0  0  0  0  0  0  0  0  0  0  0
    6.0708    1.4354    0.0000 H   0  0  0  0  0  0  0  0  0  0  0  0
    6.9668    2.8055    0.0000 H   0  0  0  0  0  0  0  0  0  0  0  0
    6.7210    3.5192    0.0000 H   0  0  0  0  0  0  0  0  0  0  0  0
    4.6392    0.3094    0.0000 H   0  0  0  0  0  0  0  0  0  0  0  0
    4.4953   -0.4316    0.0000 H   0  0  0  0  0  0  0  0  0  0  0  0
    6.1804    4.1619    0.0000 H   0  0  0  0  0  0  0  0  0  0  0  0
    5.3052    4.2153    0.0000 H   0  0  0  0  0  0  0  0  0  0  0  0
    5.7104    1.8507    0.0000 H   0  0  0  0  0  0  0  0  0  0  0  0
    4.8789    2.1288    0.0000 H   0  0  0  0  0  0  0  0  0  0  0  0
    4.6008    1.2972    0.0000 H   0  0  0  0  0  0  0  0  0  0  0  0
    6.7020   -1.0336    0.0000 H   0  0  0  0  0  0  0  0  0  0  0  0
    2.9025   -1.5678    0.0000 H   0  0  0  0  0  0  0  0  0  0  0  0
    4.2238   -3.2268    0.0000 H   0  0  0  0  0  0  0  0  0  0  0  0
    5.1870    0.8299    0.0000 H   0  0  0  0  0  0  0  0  0  0  0  0
    7.0469   -2.6633    0.0000 H   0  0  0  0  0  0  0  0  0  0  0  0
    2.3811    2.4499    0.0000 H   0  0  0  0  0  0  0  0  0  0  0  0
    1.4619   -0.7165    0.0000 H   0  0  0  0  0  0  0  0  0  0  0  0
    3.2280    4.6768    0.0000 H   0  0  0  0  0  0  0  0  0  0  0  0
    2.3811    4.4499    0.0000 H   0  0  0  0  0  0  0  0  0  0  0  0
    2.6080    3.6030    0.0000 H   0  0  0  0  0  0  0  0  0  0  0  0
  1 26  1  0  0  0  0
  2 14  1  0  0  0  0
  2 19  1  0  0  0  0
  3 24  1  0  0  0  0
  3 29  1  0  0  0  0
  4  9  1  0  0  0  0
  4 12  1  0  0  0  0
  4 15  1  0  0  0  0
  5 16  1  0  0  0  0
  5 20  1  0  0  0  0
  5 46  1  0  0  0  0
  6 20  2  0  0  0  0
  6 28  1  0  0  0  0
  7 23  1  0  0  0  0
  7 28  2  0  0  0  0
  8  9  1  0  0  0  0
  8 10  1  0  0  0  0
  8 30  1  0  0  0  0
  8 31  1  0  0  0  0
  9 32  1  0  0  0  0
  9 33  1  0  0  0  0
 10 11  1  0  0  0  0
 10 34  1  0  0  0  0
 10 35  1  0  0  0  0
 11 14  1  0  0  0  0
 11 36  1  0  0  0  0
 11 37  1  0  0  0  0
 12 13  1  0  0  0  0
 12 38  1  0  0  0  0
 12 39  1  0  0  0  0
 13 16  2  0  0  0  0
 13 17  1  0  0  0  0
 14 40  1  0  0  0  0
 14 41  1  0  0  0  0
 15 42  1  0  0  0  0
 15 43  1  0  0  0  0
 15 44  1  0  0  0  0
 16 21  1  0  0  0  0
 17 25  2  0  0  0  0
 17 45  1  0  0  0  0
 18 20  1  0  0  0  0
 18 22  2  0  0  0  0
 18 23  1  0  0  0  0
 19 22  1  0  0  0  0
 19 24  2  0  0  0  0
 21 26  2  0  0  0  0
 21 47  1  0  0  0  0
 22 48  1  0  0  0  0
 23 27  2  0  0  0  0
 24 27  1  0  0  0  0
 25 26  1  0  0  0  0
 25 49  1  0  0  0  0
 27 50  1  0  0  0  0
 28 51  1  0  0  0  0
 29 52  1  0  0  0  0
 29 53  1  0  0  0  0
 29 54  1  0  0  0  0
M  END
> <PUBCHEM_COMPOUND_CID>
11952856

> <PUBCHEM_COMPOUND_CANONICALIZED>
1

> <PUBCHEM_CACTVS_COMPLEXITY>
513

> <PUBCHEM_CACTVS_HBOND_ACCEPTOR>
6

> <PUBCHEM_CACTVS_HBOND_DONOR>
1

> <PUBCHEM_CACTVS_ROTATABLE_BOND>
1

> <PUBCHEM_CACTVS_SUBSKEYS>
AAADceB7sAAAEAAAAAAAAAAAAAAAAAAAAAA8YIAAAAAAAAAB0AAAHgBQAAABrAzhngY39vfIFACgAyZjZACCiCkxIqQJ2CA+7LiNLuLE+duGPCru0BvK6jew0BMOIkABAgECQABEgAIEAgSAAAAAAAAAAA==

> <PUBCHEM_IUPAC_OPENEYE_NAME>
5-bromo-18-methoxy-10-methyl-16-oxa-2,10,21,23-tetrazatetracyclo[15.6.2.03,8.020,24]pentacosa-1(23),3(8),4,6,17,19,21,24-octaene

> <PUBCHEM_IUPAC_CAS_NAME>
5-bromo-18-methoxy-10-methyl-16-oxa-2,10,21,23-tetrazatetracyclo[15.6.2.03,8.020,24]pentacosa-1(23),3(8),4,6,17,19,21,24-octaene

> <PUBCHEM_IUPAC_NAME_MARKUP>
5-bromo-18-methoxy-10-methyl-16-oxa-2,10,21,23-tetrazatetracyclo[15.6.2.0<SUP>3,8</SUP>.0<SUP>20,24</SUP>]pentacosa-1(23),3(8),4,6,17,19,21,24-octaene

> <PUBCHEM_IUPAC_NAME>
5-bromo-18-methoxy-10-methyl-16-oxa-2,10,21,23-tetrazatetracyclo[15.6.2.03,8.020,24]pentacosa-1(23),3(8),4,6,17,19,21,24-octaene

> <PUBCHEM_IUPAC_SYSTEMATIC_NAME>
5-bromanyl-18-methoxy-10-methyl-16-oxa-2,10,21,23-tetrazatetracyclo[15.6.2.03,8.020,24]pentacosa-1(23),3(8),4,6,17,19,21,24-octaene

> <PUBCHEM_IUPAC_TRADITIONAL_NAME>
5-bromo-18-methoxy-10-methyl-16-oxa-2,10,21,23-tetrazatetracyclo[15.6.2.03,8.020,24]pentacosa-1(23),3(8),4,6,17,19,21,24-octaene

> <PUBCHEM_IUPAC_INCHI>
InChI=1S/C22H25BrN4O2/c1-27-8-4-3-5-9-29-21-11-17-19(12-20(21)28-2)24-14-25-22(17)26-18-10-16(23)7-6-15(18)13-27/h6-7,10-12,14H,3-5,8-9,13H2,1-2H3,(H,24,25,26)

> <PUBCHEM_IUPAC_INCHIKEY>
JXDYOSVKVSQGJM-UHFFFAOYSA-N

> <PUBCHEM_XLOGP3_AA>
4.7

> <PUBCHEM_EXACT_MASS>
456.11609

> <PUBCHEM_MOLECULAR_FORMULA>
C22H25BrN4O2

> <PUBCHEM_MOLECULAR_WEIGHT>
457.4

> <PUBCHEM_OPENEYE_CAN_SMILES>
CN1CCCCCOC2=C(C=C3C(=C2)C(=NC=N3)NC4=C(C1)C=CC(=C4)Br)OC

> <PUBCHEM_OPENEYE_ISO_SMILES>
CN1CCCCCOC2=C(C=C3C(=C2)C(=NC=N3)NC4=C(C1)C=CC(=C4)Br)OC

> <PUBCHEM_CACTVS_TPSA>
59.5

> <PUBCHEM_MONOISOTOPIC_WEIGHT>
456.11609

> <PUBCHEM_TOTAL_CHARGE>
0

> <PUBCHEM_HEAVY_ATOM_COUNT>
29

> <PUBCHEM_ATOM_DEF_STEREO_COUNT>
0

> <PUBCHEM_ATOM_UDEF_STEREO_COUNT>
0

> <PUBCHEM_BOND_DEF_STEREO_COUNT>
0

> <PUBCHEM_BOND_UDEF_STEREO_COUNT>
0

> <PUBCHEM_ISOTOPIC_ATOM_COUNT>
0

> <PUBCHEM_COMPONENT_COUNT>
1

> <PUBCHEM_CACTVS_TAUTO_COUNT>
3

> <PUBCHEM_COORDINATE_TYPE>
1
5
255

> <PUBCHEM_BONDANNOTATIONS>
13  16  8
13  17  8
16  21  8
17  25  8
18  20  8
18  22  8
18  23  8
19  22  8
19  24  8
21  26  8
23  27  8
24  27  8
25  26  8
6  20  8
6  28  8
7  23  8
7  28  8

$$$$
25182860
  -OEChem-11282412102D

 61 66  0     0  0  0  0  0  0999 V2000
   11.2215   -1.7234    0.0000 S   0  0  0  0  0  0  0  0  0  0  0  0
    8.4530    0.4983    0.0000 S   0  0  0  0  0  0  0  0  0  0  0  0
    2.0000   -0.2464    0.0000 F   0  0  0  0  0  0  0  0  0  0  0  0
   19.1788   -1.9644    0.0000 O   0  0  0  0  0  0  0  0  0  0  0  0
   14.0943   -0.8929    0.0000 O   0  0  0  0  0  0  0  0  0  0  0  0
   17.2778   -2.5857    0.0000 N   0  0  0  0  0  0  0  0  0  0  0  0
   14.6324   -2.5392    0.0000 N   0  0  0  0  0  0  0  0  0  0  0  0
   12.9376   -2.1820    0.0000 N   0  0  0  0  0  0  0  0  0  0  0  0
    7.1962    1.7536    0.0000 N   0  0  0  0  0  0  0  0  0  0  0  0
   12.2963   -0.5255    0.0000 N   0  0  0  0  0  0  0  0  0  0  0  0
    6.3301    1.2536    0.0000 N   0  0  0  0  0  0  0  0  0  0  0  0
    8.1424    3.0583    0.0000 N   0  0  0  0  0  0  0  0  0  0  0  0
    8.7260    2.2536    0.0000 N   0  0  0  0  0  0  0  0  0  0  0  0
   17.4840   -1.6072    0.0000 C   0  0  0  0  0  0  0  0  0  0  0  0
   18.0221   -3.2536    0.0000 C   0  0  0  0  0  0  0  0  0  0  0  0
   16.3272   -2.8964    0.0000 C   0  0  0  0  0  0  0  0  0  0  0  0
   18.4345   -1.2966    0.0000 C   0  0  0  0  0  0  0  0  0  0  0  0
   18.9726   -2.9429    0.0000 C   0  0  0  0  0  0  0  0  0  0  0  0
   15.5829   -2.2285    0.0000 C   0  0  0  0  0  0  0  0  0  0  0  0
   13.8881   -1.8714    0.0000 C   0  0  0  0  0  0  0  0  0  0  0  0
   12.1933   -1.5142    0.0000 C   0  0  0  0  0  0  0  0  0  0  0  0
   10.7207   -0.8646    0.0000 C   0  0  0  0  0  0  0  0  0  0  0  0
   11.3886   -0.1203    0.0000 C   0  0  0  0  0  0  0  0  0  0  0  0
    9.4315    0.2921    0.0000 C   0  0  0  0  0  0  0  0  0  0  0  0
    9.7422   -0.6584    0.0000 C   0  0  0  0  0  0  0  0  0  0  0  0
   11.0779    0.8302    0.0000 C   0  0  0  0  0  0  0  0  0  0  0  0
    7.1962    2.7536    0.0000 C   0  0  0  0  0  0  0  0  0  0  0  0
    5.4641    1.7536    0.0000 C   0  0  0  0  0  0  0  0  0  0  0  0
    8.1424    1.4488    0.0000 C   0  0  0  0  0  0  0  0  0  0  0  0
   10.0994    1.0364    0.0000 C   0  0  0  0  0  0  0  0  0  0  0  0
    4.5981    1.2536    0.0000 C   0  0  0  0  0  0  0  0  0  0  0  0
    6.3301    3.2536    0.0000 C   0  0  0  0  0  0  0  0  0  0  0  0
    5.4641    2.7536    0.0000 C   0  0  0  0  0  0  0  0  0  0  0  0
    3.7320    1.7536    0.0000 C   0  0  0  0  0  0  0  0  0  0  0  0
    4.5981    0.2536    0.0000 C   0  0  0  0  0  0  0  0  0  0  0  0
    2.8660    1.2536    0.0000 C   0  0  0  0  0  0  0  0  0  0  0  0
    3.7320   -0.2464    0.0000 C   0  0  0  0  0  0  0  0  0  0  0  0
    2.8660    0.2536    0.0000 C   0  0  0  0  0  0  0  0  0  0  0  0
   17.3966   -0.9934    0.0000 H   0  0  0  0  0  0  0  0  0  0  0  0
   16.8643   -1.5866    0.0000 H   0  0  0  0  0  0  0  0  0  0  0  0
   17.5341   -3.6361    0.0000 H   0  0  0  0  0  0  0  0  0  0  0  0
   18.3141   -3.8005    0.0000 H   0  0  0  0  0  0  0  0  0  0  0  0
   15.8393   -3.2789    0.0000 H   0  0  0  0  0  0  0  0  0  0  0  0
   16.6192   -3.4433    0.0000 H   0  0  0  0  0  0  0  0  0  0  0  0
   18.9224   -0.9140    0.0000 H   0  0  0  0  0  0  0  0  0  0  0  0
   18.1425   -0.7496    0.0000 H   0  0  0  0  0  0  0  0  0  0  0  0
   19.0599   -3.5567    0.0000 H   0  0  0  0  0  0  0  0  0  0  0  0
   19.5922   -2.9635    0.0000 H   0  0  0  0  0  0  0  0  0  0  0  0
   16.0708   -1.8460    0.0000 H   0  0  0  0  0  0  0  0  0  0  0  0
   15.2909   -1.6816    0.0000 H   0  0  0  0  0  0  0  0  0  0  0  0
   14.5046   -3.1459    0.0000 H   0  0  0  0  0  0  0  0  0  0  0  0
   12.8097   -2.7887    0.0000 H   0  0  0  0  0  0  0  0  0  0  0  0
    9.3281   -1.1199    0.0000 H   0  0  0  0  0  0  0  0  0  0  0  0
   11.4920    1.2916    0.0000 H   0  0  0  0  0  0  0  0  0  0  0  0
    9.9068    1.6257    0.0000 H   0  0  0  0  0  0  0  0  0  0  0  0
    6.3301    3.8736    0.0000 H   0  0  0  0  0  0  0  0  0  0  0  0
    4.9272    3.0636    0.0000 H   0  0  0  0  0  0  0  0  0  0  0  0
    3.7320    2.3736    0.0000 H   0  0  0  0  0  0  0  0  0  0  0  0
    5.1350   -0.0564    0.0000 H   0  0  0  0  0  0  0  0  0  0  0  0
    2.3291    1.5636    0.0000 H   0  0  0  0  0  0  0  0  0  0  0  0
    3.7320   -0.8664    0.0000 H   0  0  0  0  0  0  0  0  0  0  0  0
  1 21  1  0  0  0  0
  1 22  1  0  0  0  0
  2 24  1  0  0  0  0
  2 29  1  0  0  0  0
  3 38  1  0  0  0  0
  4 17  1  0  0  0  0
  4 18  1  0  0  0  0
  5 20  2  0  0  0  0
  6 14  1  0  0  0  0
  6 15  1  0  0  0  0
  6 16  1  0  0  0  0
  7 19  1  0  0  0  0
  7 20  1  0  0  0  0
  7 51  1  0  0  0  0
  8 20  1  0  0  0  0
  8 21  1  0  0  0  0
  8 52  1  0  0  0  0
  9 11  1  0  0  0  0
  9 27  1  0  0  0  0
  9 29  1  0  0  0  0
 10 21  2  0  0  0  0
 10 23  1  0  0  0  0
 11 28  2  0  0  0  0
 12 13  1  0  0  0  0
 12 27  2  0  0  0  0
 13 29  2  0  0  0  0
 14 17  1  0  0  0  0
 14 39  1  0  0  0  0
 14 40  1  0  0  0  0
 15 18  1  0  0  0  0
 15 41  1  0  0  0  0
 15 42  1  0  0  0  0
 16 19  1  0  0  0  0
 16 43  1  0  0  0  0
 16 44  1  0  0  0  0
 17 45  1  0  0  0  0
 17 46  1  0  0  0  0
 18 47  1  0  0  0  0
 18 48  1  0  0  0  0
 19 49  1  0  0  0  0
 19 50  1  0  0  0  0
 22 23  2  0  0  0  0
 22 25  1  0  0  0  0
 23 26  1  0  0  0  0
 24 25  2  0  0  0  0
 24 30  1  0  0  0  0
 25 53  1  0  0  0  0
 26 30  2  0  0  0  0
 26 54  1  0  0  0  0
 27 32  1  0  0  0  0
 28 31  1  0  0  0  0
 28 33  1  0  0  0  0
 30 55  1  0  0  0  0
 31 34  2  0  0  0  0
 31 35  1  0  0  0  0
 32 33  2  0  0  0  0
 32 56  1  0  0  0  0
 33 57  1  0  0  0  0
 34 36  1  0  0  0  0
 34 58  1  0  0  0  0
 35 37  2  0  0  0  0
 35 59  1  0  0  0  0
 36 38  2  0  0  0  0
 36 60  1  0  0  0  0
 37 38  1  0  0  0  0
 37 61  1  0  0  0  0
M  END
> <PUBCHEM_COMPOUND_CID>
25182860

> <PUBCHEM_COMPOUND_CANONICALIZED>
1

> <PUBCHEM_CACTVS_COMPLEXITY>
791

> <PUBCHEM_CACTVS_HBOND_ACCEPTOR>
10

> <PUBCHEM_CACTVS_HBOND_DONOR>
2

> <PUBCHEM_CACTVS_ROTATABLE_BOND>
7

> <PUBCHEM_CACTVS_SUBSKEYS>
AAADceB78QBgAAAAAAAAAAAAAAAAAWLAAAA8eIEAAAAAAFgB/gAAHwQYAAAADAjh3w4x8b/IFAiuAyZidACT9KthCrldmLw4ZJiKaKLgmZGXoAhonwLYyCcQgIAOAAQAAEAAAQAACAAAgAACAAAAAAAAAA==

> <PUBCHEM_IUPAC_OPENEYE_NAME>
1-[6-[[6-(4-fluorophenyl)-[1,2,4]triazolo[4,3-b]pyridazin-3-yl]sulfanyl]-1,3-benzothiazol-2-yl]-3-(2-morpholinoethyl)urea

> <PUBCHEM_IUPAC_CAS_NAME>
1-[6-[[6-(4-fluorophenyl)-[1,2,4]triazolo[4,3-b]pyridazin-3-yl]thio]-1,3-benzothiazol-2-yl]-3-[2-(4-morpholinyl)ethyl]urea

> <PUBCHEM_IUPAC_NAME_MARKUP>
1-[6-[[6-(4-fluorophenyl)-[1,2,4]triazolo[4,3-b]pyridazin-3-yl]sulfanyl]-1,3-benzothiazol-2-yl]-3-(2-morpholin-4-ylethyl)urea

> <PUBCHEM_IUPAC_NAME>
1-[6-[[6-(4-fluorophenyl)-[1,2,4]triazolo[4,3-b]pyridazin-3-yl]sulfanyl]-1,3-benzothiazol-2-yl]-3-(2-morpholin-4-ylethyl)urea

> <PUBCHEM_IUPAC_SYSTEMATIC_NAME>
1-[6-[[6-(4-fluorophenyl)-[1,2,4]triazolo[4,3-b]pyridazin-3-yl]sulfanyl]-1,3-benzothiazol-2-yl]-3-(2-morpholin-4-ylethyl)urea

> <PUBCHEM_IUPAC_TRADITIONAL_NAME>
1-[6-[[6-(4-fluorophenyl)-[1,2,4]triazolo[4,3-b]pyridazin-3-yl]thio]-1,3-benzothiazol-2-yl]-3-(2-morpholinoethyl)urea

> <PUBCHEM_IUPAC_INCHI>
InChI=1S/C25H23FN8O2S2/c26-17-3-1-16(2-4-17)19-7-8-22-30-31-25(34(22)32-19)37-18-5-6-20-21(15-18)38-24(28-20)29-23(35)27-9-10-33-11-13-36-14-12-33/h1-8,15H,9-14H2,(H2,27,28,29,35)

> <PUBCHEM_IUPAC_INCHIKEY>
ODIUNTQOXRXOIV-UHFFFAOYSA-N

> <PUBCHEM_XLOGP3_AA>
3.4

> <PUBCHEM_EXACT_MASS>
550.13694252

> <PUBCHEM_MOLECULAR_FORMULA>
C25H23FN8O2S2

> <PUBCHEM_MOLECULAR_WEIGHT>
550.6

> <PUBCHEM_OPENEYE_CAN_SMILES>
C1COCCN1CCNC(=O)NC2=NC3=C(S2)C=C(C=C3)SC4=NN=C5N4N=C(C=C5)C6=CC=C(C=C6)F

> <PUBCHEM_OPENEYE_ISO_SMILES>
C1COCCN1CCNC(=O)NC2=NC3=C(S2)C=C(C=C3)SC4=NN=C5N4N=C(C=C5)C6=CC=C(C=C6)F

> <PUBCHEM_CACTVS_TPSA>
163

> <PUBCHEM_MONOISOTOPIC_WEIGHT>
550.13694252

> <PUBCHEM_TOTAL_CHARGE>
0

> <PUBCHEM_HEAVY_ATOM_COUNT>
38

> <PUBCHEM_ATOM_DEF_STEREO_COUNT>
0

> <PUBCHEM_ATOM_UDEF_STEREO_COUNT>
0

> <PUBCHEM_BOND_DEF_STEREO_COUNT>
0

> <PUBCHEM_BOND_UDEF_STEREO_COUNT>
0

> <PUBCHEM_ISOTOPIC_ATOM_COUNT>
0

> <PUBCHEM_COMPONENT_COUNT>
1

> <PUBCHEM_CACTVS_TAUTO_COUNT>
5

> <PUBCHEM_COORDINATE_TYPE>
1
5
255

> <PUBCHEM_BONDANNOTATIONS>
1  21  8
1  22  8
10  21  8
10  23  8
11  28  8
12  13  8
12  27  8
13  29  8
22  23  8
22  25  8
23  26  8
24  25  8
24  30  8
26  30  8
27  32  8
28  33  8
31  34  8
31  35  8
32  33  8
34  36  8
35  37  8
36  38  8
37  38  8
9  11  8
9  27  8
9  29  8

$$$$
10907042
  -OEChem-11282412102D

 63 67  0     0  0  0  0  0  0999 V2000
    5.4400   -0.7423    0.0000 O   0  0  0  0  0  0  0  0  0  0  0  0
    2.8660    3.7820    0.0000 O   0  0  0  0  0  0  0  0  0  0  0  0
    2.8660    5.7820    0.0000 O   0  0  0  0  0  0  0  0  0  0  0  0
    7.1257   -4.7621    0.0000 O   0  0  0  0  0  0  0  0  0  0  0  0
    6.3465    2.7474    0.0000 N   0  0  0  0  0  0  0  0  0  0  0  0
    6.3233    0.7475    0.0000 N   0  0  0  0  0  0  0  0  0  0  0  0
    7.2641    4.2612    0.0000 N   0  0  0  0  0  0  0  0  0  0  0  0
    7.1720   -0.7624    0.0000 N   0  0  0  0  0  0  0  0  0  0  0  0
    6.3580    5.8167    0.0000 N   0  0  0  0  0  0  0  0  0  0  0  0
    7.2067    2.2374    0.0000 C   0  0  0  0  0  0  0  0  0  0  0  0
    5.4747    2.2574    0.0000 C   0  0  0  0  0  0  0  0  0  0  0  0
    7.1951    1.2375    0.0000 C   0  0  0  0  0  0  0  0  0  0  0  0
    5.4632    1.2575    0.0000 C   0  0  0  0  0  0  0  0  0  0  0  0
    6.3580    3.7473    0.0000 C   0  0  0  0  0  0  0  0  0  0  0  0
    6.3118   -0.2524    0.0000 C   0  0  0  0  0  0  0  0  0  0  0  0
    5.4641    4.2820    0.0000 C   0  0  0  0  0  0  0  0  0  0  0  0
    5.4641    5.2820    0.0000 C   0  0  0  0  0  0  0  0  0  0  0  0
    4.5981    3.7820    0.0000 C   0  0  0  0  0  0  0  0  0  0  0  0
    4.5981    5.7820    0.0000 C   0  0  0  0  0  0  0  0  0  0  0  0
    3.7320    4.2820    0.0000 C   0  0  0  0  0  0  0  0  0  0  0  0
    7.2641    5.3028    0.0000 C   0  0  0  0  0  0  0  0  0  0  0  0
    3.7320    5.2820    0.0000 C   0  0  0  0  0  0  0  0  0  0  0  0
    7.1604   -1.7623    0.0000 C   0  0  0  0  0  0  0  0  0  0  0  0
    6.2887   -2.2523    0.0000 C   0  0  0  0  0  0  0  0  0  0  0  0
    8.0206   -2.2723    0.0000 C   0  0  0  0  0  0  0  0  0  0  0  0
    6.2771   -3.2522    0.0000 C   0  0  0  0  0  0  0  0  0  0  0  0
    8.0090   -3.2722    0.0000 C   0  0  0  0  0  0  0  0  0  0  0  0
    7.1373   -3.7622    0.0000 C   0  0  0  0  0  0  0  0  0  0  0  0
    2.0000    4.2820    0.0000 C   0  0  0  0  0  0  0  0  0  0  0  0
    2.8660    6.7820    0.0000 C   0  0  0  0  0  0  0  0  0  0  0  0
    7.9859   -5.2721    0.0000 C   0  0  0  0  0  0  0  0  0  0  0  0
    7.9744   -6.2720    0.0000 C   0  0  0  0  0  0  0  0  0  0  0  0
    8.8577   -4.7821    0.0000 C   0  0  0  0  0  0  0  0  0  0  0  0
    8.8345   -6.7820    0.0000 C   0  0  0  0  0  0  0  0  0  0  0  0
    9.7178   -5.2921    0.0000 C   0  0  0  0  0  0  0  0  0  0  0  0
    9.7063   -6.2920    0.0000 C   0  0  0  0  0  0  0  0  0  0  0  0
    7.8160    2.1227    0.0000 H   0  0  0  0  0  0  0  0  0  0  0  0
    7.4254    2.8175    0.0000 H   0  0  0  0  0  0  0  0  0  0  0  0
    5.2694    2.8425    0.0000 H   0  0  0  0  0  0  0  0  0  0  0  0
    4.8630    2.1569    0.0000 H   0  0  0  0  0  0  0  0  0  0  0  0
    7.4004    0.6525    0.0000 H   0  0  0  0  0  0  0  0  0  0  0  0
    7.8069    1.3381    0.0000 H   0  0  0  0  0  0  0  0  0  0  0  0
    4.8539    1.3722    0.0000 H   0  0  0  0  0  0  0  0  0  0  0  0
    5.2444    0.6774    0.0000 H   0  0  0  0  0  0  0  0  0  0  0  0
    4.5981    3.1620    0.0000 H   0  0  0  0  0  0  0  0  0  0  0  0
    7.7125   -0.4586    0.0000 H   0  0  0  0  0  0  0  0  0  0  0  0
    4.5981    6.4020    0.0000 H   0  0  0  0  0  0  0  0  0  0  0  0
    7.7998    5.6149    0.0000 H   0  0  0  0  0  0  0  0  0  0  0  0
    5.7554   -1.9361    0.0000 H   0  0  0  0  0  0  0  0  0  0  0  0
    8.5611   -1.9685    0.0000 H   0  0  0  0  0  0  0  0  0  0  0  0
    5.7366   -3.5560    0.0000 H   0  0  0  0  0  0  0  0  0  0  0  0
    8.5424   -3.5884    0.0000 H   0  0  0  0  0  0  0  0  0  0  0  0
    2.3100    4.8189    0.0000 H   0  0  0  0  0  0  0  0  0  0  0  0
    1.4631    4.5920    0.0000 H   0  0  0  0  0  0  0  0  0  0  0  0
    1.6900    3.7451    0.0000 H   0  0  0  0  0  0  0  0  0  0  0  0
    3.4860    6.7820    0.0000 H   0  0  0  0  0  0  0  0  0  0  0  0
    2.8660    7.4020    0.0000 H   0  0  0  0  0  0  0  0  0  0  0  0
    2.2460    6.7820    0.0000 H   0  0  0  0  0  0  0  0  0  0  0  0
    7.4339   -6.5758    0.0000 H   0  0  0  0  0  0  0  0  0  0  0  0
    8.8648   -4.1622    0.0000 H   0  0  0  0  0  0  0  0  0  0  0  0
    8.8274   -7.4020    0.0000 H   0  0  0  0  0  0  0  0  0  0  0  0
   10.2583   -4.9883    0.0000 H   0  0  0  0  0  0  0  0  0  0  0  0
   10.2396   -6.6082    0.0000 H   0  0  0  0  0  0  0  0  0  0  0  0
  1 15  2  0  0  0  0
  2 20  1  0  0  0  0
  2 29  1  0  0  0  0
  3 22  1  0  0  0  0
  3 30  1  0  0  0  0
  4 28  1  0  0  0  0
  4 31  1  0  0  0  0
  5 10  1  0  0  0  0
  5 11  1  0  0  0  0
  5 14  1  0  0  0  0
  6 12  1  0  0  0  0
  6 13  1  0  0  0  0
  6 15  1  0  0  0  0
  7 14  2  0  0  0  0
  7 21  1  0  0  0  0
  8 15  1  0  0  0  0
  8 23  1  0  0  0  0
  8 46  1  0  0  0  0
  9 17  1  0  0  0  0
  9 21  2  0  0  0  0
 10 12  1  0  0  0  0
 10 37  1  0  0  0  0
 10 38  1  0  0  0  0
 11 13  1  0  0  0  0
 11 39  1  0  0  0  0
 11 40  1  0  0  0  0
 12 41  1  0  0  0  0
 12 42  1  0  0  0  0
 13 43  1  0  0  0  0
 13 44  1  0  0  0  0
 14 16  1  0  0  0  0
 16 17  1  0  0  0  0
 16 18  2  0  0  0  0
 17 19  2  0  0  0  0
 18 20  1  0  0  0  0
 18 45  1  0  0  0  0
 19 22  1  0  0  0  0
 19 47  1  0  0  0  0
 20 22  2  0  0  0  0
 21 48  1  0  0  0  0
 23 24  2  0  0  0  0
 23 25  1  0  0  0  0
 24 26  1  0  0  0  0
 24 49  1  0  0  0  0
 25 27  2  0  0  0  0
 25 50  1  0  0  0  0
 26 28  2  0  0  0  0
 26 51  1  0  0  0  0
 27 28  1  0  0  0  0
 27 52  1  0  0  0  0
 29 53  1  0  0  0  0
 29 54  1  0  0  0  0
 29 55  1  0  0  0  0
 30 56  1  0  0  0  0
 30 57  1  0  0  0  0
 30 58  1  0  0  0  0
 31 32  2  0  0  0  0
 31 33  1  0  0  0  0
 32 34  1  0  0  0  0
 32 59  1  0  0  0  0
 33 35  2  0  0  0  0
 33 60  1  0  0  0  0
 34 36  2  0  0  0  0
 34 61  1  0  0  0  0
 35 36  1  0  0  0  0
 35 62  1  0  0  0  0
 36 63  1  0  0  0  0
M  END
> <PUBCHEM_COMPOUND_CID>
10907042

> <PUBCHEM_COMPOUND_CANONICALIZED>
1

> <PUBCHEM_CACTVS_COMPLEXITY>
692

> <PUBCHEM_CACTVS_HBOND_ACCEPTOR>
7

> <PUBCHEM_CACTVS_HBOND_DONOR>
1

> <PUBCHEM_CACTVS_ROTATABLE_BOND>
6

> <PUBCHEM_CACTVS_SUBSKEYS>
AAADceB7uAAAAAAAAAAAAAAAAAAAAAAAAAA8eMECAAAAAACx9AAAHgAQAAAADAzBngY39vfIFACoAyZjdACCiCkxIqAJ2CA+7JiNbqLE+duWPCru1hvK6Cew0BMOIEABAgACQABAgAIEAASAAAAAAAAAAA==

> <PUBCHEM_IUPAC_OPENEYE_NAME>
4-(6,7-dimethoxyquinazolin-4-yl)-N-(4-phenoxyphenyl)piperazine-1-carboxamide

> <PUBCHEM_IUPAC_CAS_NAME>
4-(6,7-dimethoxy-4-quinazolinyl)-N-(4-phenoxyphenyl)-1-piperazinecarboxamide

> <PUBCHEM_IUPAC_NAME_MARKUP>
4-(6,7-dimethoxyquinazolin-4-yl)-<I>N</I>-(4-phenoxyphenyl)piperazine-1-carboxamide

> <PUBCHEM_IUPAC_NAME>
4-(6,7-dimethoxyquinazolin-4-yl)-N-(4-phenoxyphenyl)piperazine-1-carboxamide

> <PUBCHEM_IUPAC_SYSTEMATIC_NAME>
4-(6,7-dimethoxyquinazolin-4-yl)-N-(4-phenoxyphenyl)piperazine-1-carboxamide

> <PUBCHEM_IUPAC_TRADITIONAL_NAME>
4-(6,7-dimethoxyquinazolin-4-yl)-N-(4-phenoxyphenyl)piperazine-1-carboxamide

> <PUBCHEM_IUPAC_INCHI>
InChI=1S/C27H27N5O4/c1-34-24-16-22-23(17-25(24)35-2)28-18-29-26(22)31-12-14-32(15-13-31)27(33)30-19-8-10-21(11-9-19)36-20-6-4-3-5-7-20/h3-11,16-18H,12-15H2,1-2H3,(H,30,33)

> <PUBCHEM_IUPAC_INCHIKEY>
INTPTKHSGKBHHW-UHFFFAOYSA-N

> <PUBCHEM_XLOGP3_AA>
4.1

> <PUBCHEM_EXACT_MASS>
485.20630436

> <PUBCHEM_MOLECULAR_FORMULA>
C27H27N5O4

> <PUBCHEM_MOLECULAR_WEIGHT>
485.5

> <PUBCHEM_OPENEYE_CAN_SMILES>
COC1=C(C=C2C(=C1)C(=NC=N2)N3CCN(CC3)C(=O)NC4=CC=C(C=C4)OC5=CC=CC=C5)OC

> <PUBCHEM_OPENEYE_ISO_SMILES>
COC1=C(C=C2C(=C1)C(=NC=N2)N3CCN(CC3)C(=O)NC4=CC=C(C=C4)OC5=CC=CC=C5)OC

> <PUBCHEM_CACTVS_TPSA>
89

> <PUBCHEM_MONOISOTOPIC_WEIGHT>
485.20630436

> <PUBCHEM_TOTAL_CHARGE>
0

> <PUBCHEM_HEAVY_ATOM_COUNT>
36

> <PUBCHEM_ATOM_DEF_STEREO_COUNT>
0

> <PUBCHEM_ATOM_UDEF_STEREO_COUNT>
0

> <PUBCHEM_BOND_DEF_STEREO_COUNT>
0

> <PUBCHEM_BOND_UDEF_STEREO_COUNT>
0

> <PUBCHEM_ISOTOPIC_ATOM_COUNT>
0

> <PUBCHEM_COMPONENT_COUNT>
1

> <PUBCHEM_CACTVS_TAUTO_COUNT>
-1

> <PUBCHEM_COORDINATE_TYPE>
1
5
255

> <PUBCHEM_BONDANNOTATIONS>
14  16  8
16  17  8
16  18  8
17  19  8
18  20  8
19  22  8
20  22  8
23  24  8
23  25  8
24  26  8
25  27  8
26  28  8
27  28  8
31  32  8
31  33  8
32  34  8
33  35  8
34  36  8
35  36  8
7  14  8
7  21  8
9  17  8
9  21  8

$$$$
24956525
  -OEChem-11282412102D

 74 79  0     0  0  0  0  0  0999 V2000
    2.8660    6.1970    0.0000 F   0  0  0  0  0  0  0  0  0  0  0  0
    5.4641    0.6970    0.0000 O   0  0  0  0  0  0  0  0  0  0  0  0
    4.5981    2.1970    0.0000 O   0  0  0  0  0  0  0  0  0  0  0  0
   16.4580   -3.0709    0.0000 O   0  0  0  0  0  0  0  0  0  0  0  0
    8.0622   -2.8030    0.0000 O   0  0  0  0  0  0  0  0  0  0  0  0
   11.9580   -5.6690    0.0000 O   0  0  0  0  0  0  0  0  0  0  0  0
    4.5981   -0.8030    0.0000 N   0  0  0  0  0  0  0  0  0  0  0  0
    2.8660    2.1970    0.0000 N   0  0  0  0  0  0  0  0  0  0  0  0
   14.4580   -3.0709    0.0000 N   0  0  0  0  0  0  0  0  0  0  0  0
   11.9580   -3.9370    0.0000 N   0  0  0  0  0  0  0  0  0  0  0  0
    9.8744   -5.6077    0.0000 N   0  0  0  0  0  0  0  0  0  0  0  0
    8.0622   -5.8030    0.0000 N   0  0  0  0  0  0  0  0  0  0  0  0
    3.7320    0.6970    0.0000 C   0  0  0  0  0  0  0  0  0  0  0  0
    3.2320   -0.1690    0.0000 C   0  0  0  0  0  0  0  0  0  0  0  0
    2.7320    0.6970    0.0000 C   0  0  0  0  0  0  0  0  0  0  0  0
    4.5981    0.1970    0.0000 C   0  0  0  0  0  0  0  0  0  0  0  0
    3.7320    1.6970    0.0000 C   0  0  0  0  0  0  0  0  0  0  0  0
    5.4641   -1.3030    0.0000 C   0  0  0  0  0  0  0  0  0  0  0  0
    2.8660    3.1970    0.0000 C   0  0  0  0  0  0  0  0  0  0  0  0
    6.3301   -0.8030    0.0000 C   0  0  0  0  0  0  0  0  0  0  0  0
    5.4641   -2.3030    0.0000 C   0  0  0  0  0  0  0  0  0  0  0  0
    2.0000    3.6970    0.0000 C   0  0  0  0  0  0  0  0  0  0  0  0
    3.7320    3.6970    0.0000 C   0  0  0  0  0  0  0  0  0  0  0  0
    7.1962   -1.3030    0.0000 C   0  0  0  0  0  0  0  0  0  0  0  0
    6.3301   -2.8030    0.0000 C   0  0  0  0  0  0  0  0  0  0  0  0
   14.9580   -3.9370    0.0000 C   0  0  0  0  0  0  0  0  0  0  0  0
   14.9580   -2.2049    0.0000 C   0  0  0  0  0  0  0  0  0  0  0  0
   13.4580   -3.0709    0.0000 C   0  0  0  0  0  0  0  0  0  0  0  0
    2.0000    4.6970    0.0000 C   0  0  0  0  0  0  0  0  0  0  0  0
    3.7320    4.6970    0.0000 C   0  0  0  0  0  0  0  0  0  0  0  0
    7.1962   -2.3030    0.0000 C   0  0  0  0  0  0  0  0  0  0  0  0
   15.9580   -3.9370    0.0000 C   0  0  0  0  0  0  0  0  0  0  0  0
   15.9580   -2.2049    0.0000 C   0  0  0  0  0  0  0  0  0  0  0  0
    2.8660    5.1970    0.0000 C   0  0  0  0  0  0  0  0  0  0  0  0
   12.9580   -3.9370    0.0000 C   0  0  0  0  0  0  0  0  0  0  0  0
    8.0622   -3.8030    0.0000 C   0  0  0  0  0  0  0  0  0  0  0  0
    8.9282   -4.3030    0.0000 C   0  0  0  0  0  0  0  0  0  0  0  0
   10.4580   -4.8030    0.0000 C   0  0  0  0  0  0  0  0  0  0  0  0
   11.4580   -4.8030    0.0000 C   0  0  0  0  0  0  0  0  0  0  0  0
    9.8744   -3.9982    0.0000 C   0  0  0  0  0  0  0  0  0  0  0  0
    8.9282   -5.3030    0.0000 C   0  0  0  0  0  0  0  0  0  0  0  0
    7.1962   -4.3030    0.0000 C   0  0  0  0  0  0  0  0  0  0  0  0
    7.1962   -5.3030    0.0000 C   0  0  0  0  0  0  0  0  0  0  0  0
    2.7571   -0.5675    0.0000 H   0  0  0  0  0  0  0  0  0  0  0  0
    3.7070   -0.5675    0.0000 H   0  0  0  0  0  0  0  0  0  0  0  0
    2.6244    1.3076    0.0000 H   0  0  0  0  0  0  0  0  0  0  0  0
    2.1494    0.4850    0.0000 H   0  0  0  0  0  0  0  0  0  0  0  0
    4.0611   -1.1130    0.0000 H   0  0  0  0  0  0  0  0  0  0  0  0
    2.3291    1.8870    0.0000 H   0  0  0  0  0  0  0  0  0  0  0  0
    6.3301   -0.1830    0.0000 H   0  0  0  0  0  0  0  0  0  0  0  0
    4.9272   -2.6130    0.0000 H   0  0  0  0  0  0  0  0  0  0  0  0
    1.4631    3.3870    0.0000 H   0  0  0  0  0  0  0  0  0  0  0  0
    4.2690    3.3870    0.0000 H   0  0  0  0  0  0  0  0  0  0  0  0
   14.3754   -4.1490    0.0000 H   0  0  0  0  0  0  0  0  0  0  0  0
   15.0657   -4.5475    0.0000 H   0  0  0  0  0  0  0  0  0  0  0  0
   15.0657   -1.5943    0.0000 H   0  0  0  0  0  0  0  0  0  0  0  0
   14.3754   -1.9928    0.0000 H   0  0  0  0  0  0  0  0  0  0  0  0
    7.7331   -0.9930    0.0000 H   0  0  0  0  0  0  0  0  0  0  0  0
    6.3301   -3.4230    0.0000 H   0  0  0  0  0  0  0  0  0  0  0  0
   13.5657   -2.4603    0.0000 H   0  0  0  0  0  0  0  0  0  0  0  0
   12.8754   -2.8589    0.0000 H   0  0  0  0  0  0  0  0  0  0  0  0
    1.4631    5.0070    0.0000 H   0  0  0  0  0  0  0  0  0  0  0  0
    4.2690    5.0070    0.0000 H   0  0  0  0  0  0  0  0  0  0  0  0
   15.8504   -4.5475    0.0000 H   0  0  0  0  0  0  0  0  0  0  0  0
   16.5406   -4.1490    0.0000 H   0  0  0  0  0  0  0  0  0  0  0  0
   16.5406   -1.9928    0.0000 H   0  0  0  0  0  0  0  0  0  0  0  0
   15.8504   -1.5943    0.0000 H   0  0  0  0  0  0  0  0  0  0  0  0
   12.8504   -4.5475    0.0000 H   0  0  0  0  0  0  0  0  0  0  0  0
   13.5406   -4.1490    0.0000 H   0  0  0  0  0  0  0  0  0  0  0  0
   11.6480   -3.4000    0.0000 H   0  0  0  0  0  0  0  0  0  0  0  0
   10.0670   -3.4089    0.0000 H   0  0  0  0  0  0  0  0  0  0  0  0
   10.0670   -6.1970    0.0000 H   0  0  0  0  0  0  0  0  0  0  0  0
    6.6592   -3.9930    0.0000 H   0  0  0  0  0  0  0  0  0  0  0  0
    6.6592   -5.6130    0.0000 H   0  0  0  0  0  0  0  0  0  0  0  0
  1 34  1  0  0  0  0
  2 16  2  0  0  0  0
  3 17  2  0  0  0  0
  4 32  1  0  0  0  0
  4 33  1  0  0  0  0
  5 31  1  0  0  0  0
  5 36  1  0  0  0  0
  6 39  2  0  0  0  0
  7 16  1  0  0  0  0
  7 18  1  0  0  0  0
  7 48  1  0  0  0  0
  8 17  1  0  0  0  0
  8 19  1  0  0  0  0
  8 49  1  0  0  0  0
  9 26  1  0  0  0  0
  9 27  1  0  0  0  0
  9 28  1  0  0  0  0
 10 35  1  0  0  0  0
 10 39  1  0  0  0  0
 10 70  1  0  0  0  0
 11 38  1  0  0  0  0
 11 41  1  0  0  0  0
 11 72  1  0  0  0  0
 12 41  2  0  0  0  0
 12 43  1  0  0  0  0
 13 14  1  0  0  0  0
 13 15  1  0  0  0  0
 13 16  1  0  0  0  0
 13 17  1  0  0  0  0
 14 15  1  0  0  0  0
 14 44  1  0  0  0  0
 14 45  1  0  0  0  0
 15 46  1  0  0  0  0
 15 47  1  0  0  0  0
 18 20  2  0  0  0  0
 18 21  1  0  0  0  0
 19 22  2  0  0  0  0
 19 23  1  0  0  0  0
 20 24  1  0  0  0  0
 20 50  1  0  0  0  0
 21 25  2  0  0  0  0
 21 51  1  0  0  0  0
 22 29  1  0  0  0  0
 22 52  1  0  0  0  0
 23 30  2  0  0  0  0
 23 53  1  0  0  0  0
 24 31  2  0  0  0  0
 24 58  1  0  0  0  0
 25 31  1  0  0  0  0
 25 59  1  0  0  0  0
 26 32  1  0  0  0  0
 26 54  1  0  0  0  0
 26 55  1  0  0  0  0
 27 33  1  0  0  0  0
 27 56  1  0  0  0  0
 27 57  1  0  0  0  0
 28 35  1  0  0  0  0
 28 60  1  0  0  0  0
 28 61  1  0  0  0  0
 29 34  2  0  0  0  0
 29 62  1  0  0  0  0
 30 34  1  0  0  0  0
 30 63  1  0  0  0  0
 32 64  1  0  0  0  0
 32 65  1  0  0  0  0
 33 66  1  0  0  0  0
 33 67  1  0  0  0  0
 35 68  1  0  0  0  0
 35 69  1  0  0  0  0
 36 37  2  0  0  0  0
 36 42  1  0  0  0  0
 37 40  1  0  0  0  0
 37 41  1  0  0  0  0
 38 39  1  0  0  0  0
 38 40  2  0  0  0  0
 40 71  1  0  0  0  0
 42 43  2  0  0  0  0
 42 73  1  0  0  0  0
 43 74  1  0  0  0  0
M  END
> <PUBCHEM_COMPOUND_CID>
24956525

> <PUBCHEM_COMPOUND_CANONICALIZED>
1

> <PUBCHEM_CACTVS_COMPLEXITY>
978

> <PUBCHEM_CACTVS_HBOND_ACCEPTOR>
8

> <PUBCHEM_CACTVS_HBOND_DONOR>
4

> <PUBCHEM_CACTVS_ROTATABLE_BOND>
10

> <PUBCHEM_CACTVS_SUBSKEYS>
AAADceB7uQAAAAAAAAAAAAAAGAAAAWAAAAA8eIEAAAAAAFgB/AAAHwAQAAAADgzhnw499t/JlACoAzd3dACCiCm3IqAJ2aG+bNiObvrM/buXOSju1hvY6ae43QLOAEAAAAAAAAAAgAAAAAAAAAAAAAAAAA==

> <PUBCHEM_IUPAC_OPENEYE_NAME>
N1'-(4-fluorophenyl)-N1-[4-[[2-(2-morpholinoethylcarbamoyl)-1H-pyrrolo[2,3-b]pyridin-4-yl]oxy]phenyl]cyclopropane-1,1-dicarboxamide

> <PUBCHEM_IUPAC_CAS_NAME>
N1'-(4-fluorophenyl)-N1-[4-[[2-[[2-(4-morpholinyl)ethylamino]-oxomethyl]-1H-pyrrolo[2,3-b]pyridin-4-yl]oxy]phenyl]cyclopropane-1,1-dicarboxamide

> <PUBCHEM_IUPAC_NAME_MARKUP>
1-<I>N</I>&apos;-(4-fluorophenyl)-1-<I>N</I>-[4-[[2-(2-morpholin-4-ylethylcarbamoyl)-1<I>H</I>-pyrrolo[2,3-b]pyridin-4-yl]oxy]phenyl]cyclopropane-1,1-dicarboxamide

> <PUBCHEM_IUPAC_NAME>
1-N'-(4-fluorophenyl)-1-N-[4-[[2-(2-morpholin-4-ylethylcarbamoyl)-1H-pyrrolo[2,3-b]pyridin-4-yl]oxy]phenyl]cyclopropane-1,1-dicarboxamide

> <PUBCHEM_IUPAC_SYSTEMATIC_NAME>
N1'-(4-fluorophenyl)-N1-[4-[[2-(2-morpholin-4-ylethylcarbamoyl)-1H-pyrrolo[2,3-b]pyridin-4-yl]oxy]phenyl]cyclopropane-1,1-dicarboxamide

> <PUBCHEM_IUPAC_TRADITIONAL_NAME>
N'-(4-fluorophenyl)-N-[4-[[2-(2-morpholinoethylcarbamoyl)-1H-pyrrolo[2,3-b]pyridin-4-yl]oxy]phenyl]cyclopropane-1,1-dicarboxamide

> <PUBCHEM_IUPAC_INCHI>
InChI=1S/C31H31FN6O5/c32-20-1-3-21(4-2-20)35-29(40)31(10-11-31)30(41)36-22-5-7-23(8-6-22)43-26-9-12-33-27-24(26)19-25(37-27)28(39)34-13-14-38-15-17-42-18-16-38/h1-9,12,19H,10-11,13-18H2,(H,33,37)(H,34,39)(H,35,40)(H,36,41)

> <PUBCHEM_IUPAC_INCHIKEY>
PKOVTRMHYNEBDU-UHFFFAOYSA-N

> <PUBCHEM_XLOGP3_AA>
3.8

> <PUBCHEM_EXACT_MASS>
586.23399627

> <PUBCHEM_MOLECULAR_FORMULA>
C31H31FN6O5

> <PUBCHEM_MOLECULAR_WEIGHT>
586.6

> <PUBCHEM_OPENEYE_CAN_SMILES>
C1CC1(C(=O)NC2=CC=C(C=C2)OC3=C4C=C(NC4=NC=C3)C(=O)NCCN5CCOCC5)C(=O)NC6=CC=C(C=C6)F

> <PUBCHEM_OPENEYE_ISO_SMILES>
C1CC1(C(=O)NC2=CC=C(C=C2)OC3=C4C=C(NC4=NC=C3)C(=O)NCCN5CCOCC5)C(=O)NC6=CC=C(C=C6)F

> <PUBCHEM_CACTVS_TPSA>
138

> <PUBCHEM_MONOISOTOPIC_WEIGHT>
586.23399627

> <PUBCHEM_TOTAL_CHARGE>
0

> <PUBCHEM_HEAVY_ATOM_COUNT>
43

> <PUBCHEM_ATOM_DEF_STEREO_COUNT>
0

> <PUBCHEM_ATOM_UDEF_STEREO_COUNT>
0

> <PUBCHEM_BOND_DEF_STEREO_COUNT>
0

> <PUBCHEM_BOND_UDEF_STEREO_COUNT>
0

> <PUBCHEM_ISOTOPIC_ATOM_COUNT>
0

> <PUBCHEM_COMPONENT_COUNT>
1

> <PUBCHEM_CACTVS_TAUTO_COUNT>
-1

> <PUBCHEM_COORDINATE_TYPE>
1
5
255

> <PUBCHEM_BONDANNOTATIONS>
11  38  8
11  41  8
12  41  8
12  43  8
18  20  8
18  21  8
19  22  8
19  23  8
20  24  8
21  25  8
22  29  8
23  30  8
24  31  8
25  31  8
29  34  8
30  34  8
36  37  8
36  42  8
37  40  8
37  41  8
38  40  8
42  43  8

$$$$
124111565
  -OEChem-11282412102D

 59 63  0     1  0  0  0  0  0999 V2000
    6.2619    0.0403    0.0000 O   0  0  0  0  0  0  0  0  0  0  0  0
    2.9854    4.0284    0.0000 O   0  0  0  0  0  0  0  0  0  0  0  0
    5.9209   -4.5665    0.0000 O   0  0  0  0  0  0  0  0  0  0  0  0
    4.6783    0.8450    0.0000 N   0  0  0  0  0  0  0  0  0  0  0  0
    4.6318    3.4904    0.0000 N   0  0  0  0  0  0  0  0  0  0  0  0
    4.6783   -0.7644    0.0000 N   0  0  0  0  0  0  0  0  0  0  0  0
    2.0000   -0.4597    0.0000 N   0  0  0  0  0  0  0  0  0  0  0  0
    2.8660   -1.9597    0.0000 N   0  0  0  0  0  0  0  0  0  0  0  0
    4.9889    1.7955    0.0000 C   0  0  2  0  0  0  0  0  0  0  0  0
    5.9674    2.0018    0.0000 C   0  0  0  0  0  0  0  0  0  0  0  0
    4.3211    2.5398    0.0000 C   0  0  0  0  0  0  0  0  0  0  0  0
    6.2781    2.9523    0.0000 C   0  0  0  0  0  0  0  0  0  0  0  0
    5.6103    3.6966    0.0000 C   0  0  0  0  0  0  0  0  0  0  0  0
    3.7320    0.5403    0.0000 C   0  0  0  0  0  0  0  0  0  0  0  0
    5.2619    0.0403    0.0000 C   0  0  0  0  0  0  0  0  0  0  0  0
    3.7320   -0.4597    0.0000 C   0  0  0  0  0  0  0  0  0  0  0  0
    3.9639    4.2347    0.0000 C   0  0  0  0  0  0  0  0  0  0  0  0
    2.8660    1.0403    0.0000 C   0  0  0  0  0  0  0  0  0  0  0  0
    2.8660   -0.9597    0.0000 C   0  0  0  0  0  0  0  0  0  0  0  0
    4.9889   -1.7150    0.0000 C   0  0  0  0  0  0  0  0  0  0  0  0
    2.0000    0.5403    0.0000 C   0  0  0  0  0  0  0  0  0  0  0  0
    4.2746    5.1852    0.0000 C   0  0  0  0  0  0  0  0  0  0  0  0
    4.3211   -2.4593    0.0000 C   0  0  0  0  0  0  0  0  0  0  0  0
    5.9674   -1.9212    0.0000 C   0  0  0  0  0  0  0  0  0  0  0  0
    4.6318   -3.4098    0.0000 C   0  0  0  0  0  0  0  0  0  0  0  0
    6.2781   -2.8717    0.0000 C   0  0  0  0  0  0  0  0  0  0  0  0
    5.6103   -3.6160    0.0000 C   0  0  0  0  0  0  0  0  0  0  0  0
    3.6067    5.9295    0.0000 C   0  0  0  0  0  0  0  0  0  0  0  0
    6.8994   -4.7728    0.0000 C   0  0  0  0  0  0  0  0  0  0  0  0
    7.5673   -4.0284    0.0000 C   0  0  0  0  0  0  0  0  0  0  0  0
    7.2101   -5.7233    0.0000 C   0  0  0  0  0  0  0  0  0  0  0  0
    8.5458   -4.2347    0.0000 C   0  0  0  0  0  0  0  0  0  0  0  0
    8.1886   -5.9295    0.0000 C   0  0  0  0  0  0  0  0  0  0  0  0
    8.8564   -5.1852    0.0000 C   0  0  0  0  0  0  0  0  0  0  0  0
    5.4030    1.3341    0.0000 H   0  0  0  0  0  0  0  0  0  0  0  0
    5.9880    1.3821    0.0000 H   0  0  0  0  0  0  0  0  0  0  0  0
    6.5812    1.9144    0.0000 H   0  0  0  0  0  0  0  0  0  0  0  0
    3.7742    2.8319    0.0000 H   0  0  0  0  0  0  0  0  0  0  0  0
    3.9385    2.0519    0.0000 H   0  0  0  0  0  0  0  0  0  0  0  0
    6.8250    2.6603    0.0000 H   0  0  0  0  0  0  0  0  0  0  0  0
    6.6607    3.4402    0.0000 H   0  0  0  0  0  0  0  0  0  0  0  0
    6.1366    4.0242    0.0000 H   0  0  0  0  0  0  0  0  0  0  0  0
    5.3790    4.2718    0.0000 H   0  0  0  0  0  0  0  0  0  0  0  0
    2.8660    1.6603    0.0000 H   0  0  0  0  0  0  0  0  0  0  0  0
    1.4631    0.8503    0.0000 H   0  0  0  0  0  0  0  0  0  0  0  0
    4.8812    5.3130    0.0000 H   0  0  0  0  0  0  0  0  0  0  0  0
    3.7144   -2.3314    0.0000 H   0  0  0  0  0  0  0  0  0  0  0  0
    6.3815   -1.4597    0.0000 H   0  0  0  0  0  0  0  0  0  0  0  0
    2.3291   -2.2697    0.0000 H   0  0  0  0  0  0  0  0  0  0  0  0
    3.4030   -2.2697    0.0000 H   0  0  0  0  0  0  0  0  0  0  0  0
    4.2177   -3.8712    0.0000 H   0  0  0  0  0  0  0  0  0  0  0  0
    6.8848   -2.9996    0.0000 H   0  0  0  0  0  0  0  0  0  0  0  0
    3.7993    6.5188    0.0000 H   0  0  0  0  0  0  0  0  0  0  0  0
    3.0000    5.8016    0.0000 H   0  0  0  0  0  0  0  0  0  0  0  0
    7.3747   -3.4391    0.0000 H   0  0  0  0  0  0  0  0  0  0  0  0
    6.7960   -6.1847    0.0000 H   0  0  0  0  0  0  0  0  0  0  0  0
    8.9598   -3.7732    0.0000 H   0  0  0  0  0  0  0  0  0  0  0  0
    8.3812   -6.5188    0.0000 H   0  0  0  0  0  0  0  0  0  0  0  0
    9.4631   -5.3130    0.0000 H   0  0  0  0  0  0  0  0  0  0  0  0
  1 15  2  0  0  0  0
  2 17  2  0  0  0  0
  3 27  1  0  0  0  0
  3 29  1  0  0  0  0
  9  4  1  1  0  0  0
  4 14  1  0  0  0  0
  4 15  1  0  0  0  0
  5 11  1  0  0  0  0
  5 13  1  0  0  0  0
  5 17  1  0  0  0  0
  6 15  1  0  0  0  0
  6 16  1  0  0  0  0
  6 20  1  0  0  0  0
  7 19  2  0  0  0  0
  7 21  1  0  0  0  0
  8 19  1  0  0  0  0
  8 49  1  0  0  0  0
  8 50  1  0  0  0  0
  9 10  1  0  0  0  0
  9 11  1  0  0  0  0
  9 35  1  0  0  0  0
 10 12  1  0  0  0  0
 10 36  1  0  0  0  0
 10 37  1  0  0  0  0
 11 38  1  0  0  0  0
 11 39  1  0  0  0  0
 12 13  1  0  0  0  0
 12 40  1  0  0  0  0
 12 41  1  0  0  0  0
 13 42  1  0  0  0  0
 13 43  1  0  0  0  0
 14 16  2  0  0  0  0
 14 18  1  0  0  0  0
 16 19  1  0  0  0  0
 17 22  1  0  0  0  0
 18 21  2  0  0  0  0
 18 44  1  0  0  0  0
 20 23  2  0  0  0  0
 20 24  1  0  0  0  0
 21 45  1  0  0  0  0
 22 28  2  0  0  0  0
 22 46  1  0  0  0  0
 23 25  1  0  0  0  0
 23 47  1  0  0  0  0
 24 26  2  0  0  0  0
 24 48  1  0  0  0  0
 25 27  2  0  0  0  0
 25 51  1  0  0  0  0
 26 27  1  0  0  0  0
 26 52  1  0  0  0  0
 28 53  1  0  0  0  0
 28 54  1  0  0  0  0
 29 30  2  0  0  0  0
 29 31  1  0  0  0  0
 30 32  1  0  0  0  0
 30 55  1  0  0  0  0
 31 33  2  0  0  0  0
 31 56  1  0  0  0  0
 32 34  2  0  0  0  0
 32 57  1  0  0  0  0
 33 34  1  0  0  0  0
 33 58  1  0  0  0  0
 34 59  1  0  0  0  0
M  END
> <PUBCHEM_COMPOUND_CID>
124111565

> <PUBCHEM_COMPOUND_CANONICALIZED>
1

> <PUBCHEM_CACTVS_COMPLEXITY>
749

> <PUBCHEM_CACTVS_HBOND_ACCEPTOR>
5

> <PUBCHEM_CACTVS_HBOND_DONOR>
1

> <PUBCHEM_CACTVS_ROTATABLE_BOND>
5

> <PUBCHEM_CACTVS_SUBSKEYS>
AAADceB7sAAAAAAAAAAAAAAAAAAAAWAAAAA8eIEAAAAAAFgB0AAAHgAQAAAACCzBkgQ99pNIFACoADd3dACCiCkxMiAI2CA+fNiMZmLE8duWPCjsxhPI6KewQAAAAEAAAAAAAAAAgAAAAAAAAAAAAAAAAA==

> <PUBCHEM_IUPAC_OPENEYE_NAME>
4-amino-3-(4-phenoxyphenyl)-1-[(3R)-1-prop-2-enoyl-3-piperidyl]imidazo[4,5-c]pyridin-2-one

> <PUBCHEM_IUPAC_CAS_NAME>
4-amino-1-[(3R)-1-(1-oxoprop-2-enyl)-3-piperidinyl]-3-(4-phenoxyphenyl)-2-imidazo[4,5-c]pyridinone

> <PUBCHEM_IUPAC_NAME_MARKUP>
4-amino-3-(4-phenoxyphenyl)-1-[(3<I>R</I>)-1-prop-2-enoylpiperidin-3-yl]imidazo[4,5-c]pyridin-2-one

> <PUBCHEM_IUPAC_NAME>
4-amino-3-(4-phenoxyphenyl)-1-[(3R)-1-prop-2-enoylpiperidin-3-yl]imidazo[4,5-c]pyridin-2-one

> <PUBCHEM_IUPAC_SYSTEMATIC_NAME>
4-azanyl-3-(4-phenoxyphenyl)-1-[(3R)-1-prop-2-enoylpiperidin-3-yl]imidazo[4,5-c]pyridin-2-one

> <PUBCHEM_IUPAC_TRADITIONAL_NAME>
1-[(3R)-1-acryloyl-3-piperidyl]-4-amino-3-(4-phenoxyphenyl)imidazo[4,5-c]pyridin-2-one

> <PUBCHEM_IUPAC_INCHI>
InChI=1S/C26H25N5O3/c1-2-23(32)29-16-6-7-19(17-29)30-22-14-15-28-25(27)24(22)31(26(30)33)18-10-12-21(13-11-18)34-20-8-4-3-5-9-20/h2-5,8-15,19H,1,6-7,16-17H2,(H2,27,28)/t19-/m1/s1

> <PUBCHEM_IUPAC_INCHIKEY>
KOEUOFPEZFUWRF-LJQANCHMSA-N

> <PUBCHEM_XLOGP3_AA>
3.2

> <PUBCHEM_EXACT_MASS>
455.19573968

> <PUBCHEM_MOLECULAR_FORMULA>
C26H25N5O3

> <PUBCHEM_MOLECULAR_WEIGHT>
455.5

> <PUBCHEM_OPENEYE_CAN_SMILES>
C=CC(=O)N1CCCC(C1)N2C3=C(C(=NC=C3)N)N(C2=O)C4=CC=C(C=C4)OC5=CC=CC=C5

> <PUBCHEM_OPENEYE_ISO_SMILES>
C=CC(=O)N1CCC[C@H](C1)N2C3=C(C(=NC=C3)N)N(C2=O)C4=CC=C(C=C4)OC5=CC=CC=C5

> <PUBCHEM_CACTVS_TPSA>
92

> <PUBCHEM_MONOISOTOPIC_WEIGHT>
455.19573968

> <PUBCHEM_TOTAL_CHARGE>
0

> <PUBCHEM_HEAVY_ATOM_COUNT>
34

> <PUBCHEM_ATOM_DEF_STEREO_COUNT>
1

> <PUBCHEM_ATOM_UDEF_STEREO_COUNT>
0

> <PUBCHEM_BOND_DEF_STEREO_COUNT>
0

> <PUBCHEM_BOND_UDEF_STEREO_COUNT>
0

> <PUBCHEM_ISOTOPIC_ATOM_COUNT>
0

> <PUBCHEM_COMPONENT_COUNT>
1

> <PUBCHEM_CACTVS_TAUTO_COUNT>
-1

> <PUBCHEM_COORDINATE_TYPE>
1
5
255

> <PUBCHEM_BONDANNOTATIONS>
14  16  8
14  18  8
16  19  8
18  21  8
20  23  8
20  24  8
23  25  8
24  26  8
25  27  8
26  27  8
29  30  8
29  31  8
30  32  8
31  33  8
32  34  8
33  34  8
4  14  8
4  15  8
9  4  5
6  15  8
6  16  8
7  19  8
7  21  8

$$$$
5330548
  -OEChem-11282412102D

 44 47  0     0  0  0  0  0  0999 V2000
    5.4641   -0.2734    0.0000 O   0  0  0  0  0  0  0  0  0  0  0  0
   11.0920   -2.1394    0.0000 O   0  0  0  0  0  0  0  0  0  0  0  0
    4.5981   -1.7734    0.0000 O   0  0  0  0  0  0  0  0  0  0  0  0
    9.0084   -2.0782    0.0000 N   0  0  0  0  0  0  0  0  0  0  0  0
   10.6869    0.5004    0.0000 N   0  0  0  0  0  0  0  0  0  0  0  0
    8.0622   -0.7734    0.0000 C   0  0  0  0  0  0  0  0  0  0  0  0
    9.5920   -1.2734    0.0000 C   0  0  0  0  0  0  0  0  0  0  0  0
    8.0622   -1.7734    0.0000 C   0  0  0  0  0  0  0  0  0  0  0  0
   11.0920   -0.4074    0.0000 C   0  0  0  0  0  0  0  0  0  0  0  0
    9.0084   -0.4687    0.0000 C   0  0  0  0  0  0  0  0  0  0  0  0
   10.5920   -1.2734    0.0000 C   0  0  0  0  0  0  0  0  0  0  0  0
   11.4239    1.1675    0.0000 C   0  0  0  0  0  0  0  0  0  0  0  0
   12.2899    0.6675    0.0000 C   0  0  0  0  0  0  0  0  0  0  0  0
   12.0807   -0.3043    0.0000 C   0  0  0  0  0  0  0  0  0  0  0  0
    7.1962   -0.2734    0.0000 C   0  0  0  0  0  0  0  0  0  0  0  0
    7.1962   -2.2734    0.0000 C   0  0  0  0  0  0  0  0  0  0  0  0
    6.3301   -0.7734    0.0000 C   0  0  0  0  0  0  0  0  0  0  0  0
    6.3301   -1.7734    0.0000 C   0  0  0  0  0  0  0  0  0  0  0  0
   11.4239    2.1675    0.0000 C   0  0  0  0  0  0  0  0  0  0  0  0
   13.1560    1.1675    0.0000 C   0  0  0  0  0  0  0  0  0  0  0  0
   12.2899    2.6675    0.0000 C   0  0  0  0  0  0  0  0  0  0  0  0
   13.1560    2.1675    0.0000 C   0  0  0  0  0  0  0  0  0  0  0  0
    3.7320   -0.2734    0.0000 C   0  0  0  0  0  0  0  0  0  0  0  0
    2.8660   -0.7734    0.0000 C   0  0  0  0  0  0  0  0  0  0  0  0
    4.5981   -0.7734    0.0000 C   0  0  0  0  0  0  0  0  0  0  0  0
    2.0000   -0.2734    0.0000 C   0  0  0  0  0  0  0  0  0  0  0  0
    9.2010    0.1206    0.0000 H   0  0  0  0  0  0  0  0  0  0  0  0
    9.2010   -2.6675    0.0000 H   0  0  0  0  0  0  0  0  0  0  0  0
   10.0802    0.6282    0.0000 H   0  0  0  0  0  0  0  0  0  0  0  0
   12.4948   -0.7658    0.0000 H   0  0  0  0  0  0  0  0  0  0  0  0
    7.1962    0.3466    0.0000 H   0  0  0  0  0  0  0  0  0  0  0  0
    7.1962   -2.8934    0.0000 H   0  0  0  0  0  0  0  0  0  0  0  0
    5.7932   -2.0834    0.0000 H   0  0  0  0  0  0  0  0  0  0  0  0
   10.8870    2.4775    0.0000 H   0  0  0  0  0  0  0  0  0  0  0  0
   13.6929    0.8575    0.0000 H   0  0  0  0  0  0  0  0  0  0  0  0
   12.2899    3.2875    0.0000 H   0  0  0  0  0  0  0  0  0  0  0  0
   13.6929    2.4775    0.0000 H   0  0  0  0  0  0  0  0  0  0  0  0
    4.1306    0.2015    0.0000 H   0  0  0  0  0  0  0  0  0  0  0  0
    3.3335    0.2015    0.0000 H   0  0  0  0  0  0  0  0  0  0  0  0
    2.4675   -1.2484    0.0000 H   0  0  0  0  0  0  0  0  0  0  0  0
    3.2646   -1.2484    0.0000 H   0  0  0  0  0  0  0  0  0  0  0  0
    2.3100    0.2635    0.0000 H   0  0  0  0  0  0  0  0  0  0  0  0
    1.4631    0.0366    0.0000 H   0  0  0  0  0  0  0  0  0  0  0  0
    1.6900   -0.8104    0.0000 H   0  0  0  0  0  0  0  0  0  0  0  0
  1 17  1  0  0  0  0
  1 25  1  0  0  0  0
  2 11  2  0  0  0  0
  3 25  2  0  0  0  0
  4  7  1  0  0  0  0
  4  8  1  0  0  0  0
  4 28  1  0  0  0  0
  5  9  1  0  0  0  0
  5 12  1  0  0  0  0
  5 29  1  0  0  0  0
  6  8  2  0  0  0  0
  6 10  1  0  0  0  0
  6 15  1  0  0  0  0
  7 10  2  0  0  0  0
  7 11  1  0  0  0  0
  8 16  1  0  0  0  0
  9 11  1  0  0  0  0
  9 14  2  0  0  0  0
 10 27  1  0  0  0  0
 12 13  1  0  0  0  0
 12 19  2  0  0  0  0
 13 14  1  0  0  0  0
 13 20  2  0  0  0  0
 14 30  1  0  0  0  0
 15 17  2  0  0  0  0
 15 31  1  0  0  0  0
 16 18  2  0  0  0  0
 16 32  1  0  0  0  0
 17 18  1  0  0  0  0
 18 33  1  0  0  0  0
 19 21  1  0  0  0  0
 19 34  1  0  0  0  0
 20 22  1  0  0  0  0
 20 35  1  0  0  0  0
 21 22  2  0  0  0  0
 21 36  1  0  0  0  0
 22 37  1  0  0  0  0
 23 24  1  0  0  0  0
 23 25  1  0  0  0  0
 23 38  1  0  0  0  0
 23 39  1  0  0  0  0
 24 26  1  0  0  0  0
 24 40  1  0  0  0  0
 24 41  1  0  0  0  0
 26 42  1  0  0  0  0
 26 43  1  0  0  0  0
 26 44  1  0  0  0  0
M  END
> <PUBCHEM_COMPOUND_CID>
5330548

> <PUBCHEM_COMPOUND_CANONICALIZED>
1

> <PUBCHEM_CACTVS_COMPLEXITY>
537

> <PUBCHEM_CACTVS_HBOND_ACCEPTOR>
3

> <PUBCHEM_CACTVS_HBOND_DONOR>
2

> <PUBCHEM_CACTVS_ROTATABLE_BOND>
6

> <PUBCHEM_CACTVS_SUBSKEYS>
AAADceB7MAAAAAAAAAAAAAAAAAAAAWLAAAAwYAAAAAAAAFgB/gAAHgAQAAAADAyBngAyzvLJlACoA6TyTACCiCAnIiAImSG2bNgMJvLE9buGOyjk0BHI6Ye42fOeAEABAAACAAAAgAIAAAQAAAAAAAAAAA==

> <PUBCHEM_IUPAC_OPENEYE_NAME>
[2-(1H-indole-2-carbonyl)-1H-indol-5-yl] butanoate

> <PUBCHEM_IUPAC_CAS_NAME>
butanoic acid [2-[1H-indol-2-yl(oxo)methyl]-1H-indol-5-yl] ester

> <PUBCHEM_IUPAC_NAME_MARKUP>
[2-(1<I>H</I>-indole-2-carbonyl)-1<I>H</I>-indol-5-yl] butanoate

> <PUBCHEM_IUPAC_NAME>
[2-(1H-indole-2-carbonyl)-1H-indol-5-yl] butanoate

> <PUBCHEM_IUPAC_SYSTEMATIC_NAME>
[2-(1H-indol-2-ylcarbonyl)-1H-indol-5-yl] butanoate

> <PUBCHEM_IUPAC_TRADITIONAL_NAME>
butyric acid [2-(1H-indole-2-carbonyl)-1H-indol-5-yl] ester

> <PUBCHEM_IUPAC_INCHI>
InChI=1S/C21H18N2O3/c1-2-5-20(24)26-15-8-9-17-14(10-15)12-19(23-17)21(25)18-11-13-6-3-4-7-16(13)22-18/h3-4,6-12,22-23H,2,5H2,1H3

> <PUBCHEM_IUPAC_INCHIKEY>
CZDUJGOCEPWCNA-UHFFFAOYSA-N

> <PUBCHEM_XLOGP3_AA>
4.8

> <PUBCHEM_EXACT_MASS>
346.13174244

> <PUBCHEM_MOLECULAR_FORMULA>
C21H18N2O3

> <PUBCHEM_MOLECULAR_WEIGHT>
346.4

> <PUBCHEM_OPENEYE_CAN_SMILES>
CCCC(=O)OC1=CC2=C(C=C1)NC(=C2)C(=O)C3=CC4=CC=CC=C4N3

> <PUBCHEM_OPENEYE_ISO_SMILES>
CCCC(=O)OC1=CC2=C(C=C1)NC(=C2)C(=O)C3=CC4=CC=CC=C4N3

> <PUBCHEM_CACTVS_TPSA>
75

> <PUBCHEM_MONOISOTOPIC_WEIGHT>
346.13174244

> <PUBCHEM_TOTAL_CHARGE>
0

> <PUBCHEM_HEAVY_ATOM_COUNT>
26

> <PUBCHEM_ATOM_DEF_STEREO_COUNT>
0

> <PUBCHEM_ATOM_UDEF_STEREO_COUNT>
0

> <PUBCHEM_BOND_DEF_STEREO_COUNT>
0

> <PUBCHEM_BOND_UDEF_STEREO_COUNT>
0

> <PUBCHEM_ISOTOPIC_ATOM_COUNT>
0

> <PUBCHEM_COMPONENT_COUNT>
1

> <PUBCHEM_CACTVS_TAUTO_COUNT>
-1

> <PUBCHEM_COORDINATE_TYPE>
1
5
255

> <PUBCHEM_BONDANNOTATIONS>
12  13  8
12  19  8
13  14  8
13  20  8
15  17  8
16  18  8
17  18  8
19  21  8
20  22  8
21  22  8
4  7  8
4  8  8
5  12  8
5  9  8
6  10  8
6  15  8
6  8  8
7  10  8
8  16  8
9  14  8

$$$$
71113742
  -OEChem-11282412102D

 64 68  0     1  0  0  0  0  0999 V2000
    2.8660    4.3170    0.0000 S   0  0  0  0  0  0  0  0  0  0  0  0
    3.3660    5.1830    0.0000 O   0  0  0  0  0  0  0  0  0  0  0  0
    2.3660    3.4510    0.0000 O   0  0  0  0  0  0  0  0  0  0  0  0
    8.0622   -3.6830    0.0000 O   0  0  0  0  0  0  0  0  0  0  0  0
    3.7320    3.8170    0.0000 N   0  0  0  0  0  0  0  0  0  0  0  0
    9.7942   -4.6830    0.0000 N   0  0  0  0  0  0  0  0  0  0  0  0
    9.7942   -1.6830    0.0000 N   0  0  0  0  0  0  0  0  0  0  0  0
    8.9282   -0.1830    0.0000 N   0  0  0  0  0  0  0  0  0  0  0  0
   11.5542   -0.7177    0.0000 N   0  0  0  0  0  0  0  0  0  0  0  0
   11.5542    1.3516    0.0000 N   0  0  0  0  0  0  0  0  0  0  0  0
    5.4641    2.8170    0.0000 C   0  0  0  0  0  0  0  0  0  0  0  0
    4.5981    2.3170    0.0000 C   0  0  0  0  0  0  0  0  0  0  0  0
    5.4641    3.8170    0.0000 C   0  0  0  0  0  0  0  0  0  0  0  0
    3.7320    2.8170    0.0000 C   0  0  0  0  0  0  0  0  0  0  0  0
    4.5981    4.3170    0.0000 C   0  0  0  0  0  0  0  0  0  0  0  0
    6.3301    2.3170    0.0000 C   0  0  0  0  0  0  0  0  0  0  0  0
    6.3301    1.3170    0.0000 C   0  0  0  0  0  0  0  0  0  0  0  0
    7.1962    2.8170    0.0000 C   0  0  0  0  0  0  0  0  0  0  0  0
    2.0000    4.8170    0.0000 C   0  0  0  0  0  0  0  0  0  0  0  0
    7.1962    0.8170    0.0000 C   0  0  0  0  0  0  0  0  0  0  0  0
    8.0622    2.3170    0.0000 C   0  0  0  0  0  0  0  0  0  0  0  0
    8.0622    1.3170    0.0000 C   0  0  0  0  0  0  0  0  0  0  0  0
    8.9282   -3.1830    0.0000 C   0  0  1  0  0  0  0  0  0  0  0  0
    9.7942   -3.6830    0.0000 C   0  0  0  0  0  0  0  0  0  0  0  0
    8.9282   -2.1830    0.0000 C   0  0  0  0  0  0  0  0  0  0  0  0
    8.9282    0.8170    0.0000 C   0  0  0  0  0  0  0  0  0  0  0  0
    8.9282   -5.1830    0.0000 C   0  0  0  0  0  0  0  0  0  0  0  0
    8.0622   -4.6830    0.0000 C   0  0  0  0  0  0  0  0  0  0  0  0
    9.7942   -0.6830    0.0000 C   0  0  0  0  0  0  0  0  0  0  0  0
    9.7942    1.3170    0.0000 C   0  0  0  0  0  0  0  0  0  0  0  0
   10.6603   -0.1830    0.0000 C   0  0  0  0  0  0  0  0  0  0  0  0
   10.6603    0.8170    0.0000 C   0  0  0  0  0  0  0  0  0  0  0  0
   12.4603   -0.2038    0.0000 C   0  0  0  0  0  0  0  0  0  0  0  0
   12.4603    0.8378    0.0000 C   0  0  0  0  0  0  0  0  0  0  0  0
    5.4641    2.1970    0.0000 H   0  0  0  0  0  0  0  0  0  0  0  0
    4.1996    1.8420    0.0000 H   0  0  0  0  0  0  0  0  0  0  0  0
    4.9966    1.8420    0.0000 H   0  0  0  0  0  0  0  0  0  0  0  0
    6.0747    3.7093    0.0000 H   0  0  0  0  0  0  0  0  0  0  0  0
    5.6762    4.3996    0.0000 H   0  0  0  0  0  0  0  0  0  0  0  0
    3.1215    2.9247    0.0000 H   0  0  0  0  0  0  0  0  0  0  0  0
    3.5200    2.2344    0.0000 H   0  0  0  0  0  0  0  0  0  0  0  0
    4.9966    4.7919    0.0000 H   0  0  0  0  0  0  0  0  0  0  0  0
    4.1996    4.7919    0.0000 H   0  0  0  0  0  0  0  0  0  0  0  0
    5.7932    1.0070    0.0000 H   0  0  0  0  0  0  0  0  0  0  0  0
    7.1962    3.4370    0.0000 H   0  0  0  0  0  0  0  0  0  0  0  0
    2.3100    5.3539    0.0000 H   0  0  0  0  0  0  0  0  0  0  0  0
    1.4631    5.1270    0.0000 H   0  0  0  0  0  0  0  0  0  0  0  0
    1.6900    4.2800    0.0000 H   0  0  0  0  0  0  0  0  0  0  0  0
    7.1962    0.1970    0.0000 H   0  0  0  0  0  0  0  0  0  0  0  0
    8.5991    2.6270    0.0000 H   0  0  0  0  0  0  0  0  0  0  0  0
    8.3913   -2.8730    0.0000 H   0  0  0  0  0  0  0  0  0  0  0  0
   10.4048   -3.7907    0.0000 H   0  0  0  0  0  0  0  0  0  0  0  0
   10.0063   -3.1004    0.0000 H   0  0  0  0  0  0  0  0  0  0  0  0
    8.7162   -1.6004    0.0000 H   0  0  0  0  0  0  0  0  0  0  0  0
    8.3176   -2.2907    0.0000 H   0  0  0  0  0  0  0  0  0  0  0  0
    8.5297   -5.6580    0.0000 H   0  0  0  0  0  0  0  0  0  0  0  0
    9.3267   -5.6580    0.0000 H   0  0  0  0  0  0  0  0  0  0  0  0
    7.4516   -4.5754    0.0000 H   0  0  0  0  0  0  0  0  0  0  0  0
    7.8501   -5.2656    0.0000 H   0  0  0  0  0  0  0  0  0  0  0  0
   10.3312   -4.9930    0.0000 H   0  0  0  0  0  0  0  0  0  0  0  0
   10.3312   -1.9930    0.0000 H   0  0  0  0  0  0  0  0  0  0  0  0
    9.7942    1.9370    0.0000 H   0  0  0  0  0  0  0  0  0  0  0  0
   12.9960   -0.5159    0.0000 H   0  0  0  0  0  0  0  0  0  0  0  0
   12.9960    1.1499    0.0000 H   0  0  0  0  0  0  0  0  0  0  0  0
  1  2  2  0  0  0  0
  1  3  2  0  0  0  0
  1  5  1  0  0  0  0
  1 19  1  0  0  0  0
  4 23  1  0  0  0  0
  4 28  1  0  0  0  0
  5 14  1  0  0  0  0
  5 15  1  0  0  0  0
  6 24  1  0  0  0  0
  6 27  1  0  0  0  0
  6 60  1  0  0  0  0
  7 25  1  0  0  0  0
  7 29  1  0  0  0  0
  7 61  1  0  0  0  0
  8 26  1  0  0  0  0
  8 29  2  0  0  0  0
  9 31  2  0  0  0  0
  9 33  1  0  0  0  0
 10 32  2  0  0  0  0
 10 34  1  0  0  0  0
 11 12  1  0  0  0  0
 11 13  1  0  0  0  0
 11 16  1  0  0  0  0
 11 35  1  0  0  0  0
 12 14  1  0  0  0  0
 12 36  1  0  0  0  0
 12 37  1  0  0  0  0
 13 15  1  0  0  0  0
 13 38  1  0  0  0  0
 13 39  1  0  0  0  0
 14 40  1  0  0  0  0
 14 41  1  0  0  0  0
 15 42  1  0  0  0  0
 15 43  1  0  0  0  0
 16 17  2  0  0  0  0
 16 18  1  0  0  0  0
 17 20  1  0  0  0  0
 17 44  1  0  0  0  0
 18 21  2  0  0  0  0
 18 45  1  0  0  0  0
 19 46  1  0  0  0  0
 19 47  1  0  0  0  0
 19 48  1  0  0  0  0
 20 22  2  0  0  0  0
 20 49  1  0  0  0  0
 21 22  1  0  0  0  0
 21 50  1  0  0  0  0
 22 26  1  0  0  0  0
 23 24  1  0  0  0  0
 23 25  1  6  0  0  0
 23 51  1  0  0  0  0
 24 52  1  0  0  0  0
 24 53  1  0  0  0  0
 25 54  1  0  0  0  0
 25 55  1  0  0  0  0
 26 30  2  0  0  0  0
 27 28  1  0  0  0  0
 27 56  1  0  0  0  0
 27 57  1  0  0  0  0
 28 58  1  0  0  0  0
 28 59  1  0  0  0  0
 29 31  1  0  0  0  0
 30 32  1  0  0  0  0
 30 62  1  0  0  0  0
 31 32  1  0  0  0  0
 33 34  2  0  0  0  0
 33 63  1  0  0  0  0
 34 64  1  0  0  0  0
M  END
> <PUBCHEM_COMPOUND_CID>
71113742

> <PUBCHEM_COMPOUND_CANONICALIZED>
1

> <PUBCHEM_CACTVS_COMPLEXITY>
748

> <PUBCHEM_CACTVS_HBOND_ACCEPTOR>
9

> <PUBCHEM_CACTVS_HBOND_DONOR>
2

> <PUBCHEM_CACTVS_ROTATABLE_BOND>
6

> <PUBCHEM_CACTVS_SUBSKEYS>
AAADceB7sABAAAAAAAAAAAAAAAAAAAAAAAA8WLFiAAAAAACx/AAAHgQQQAAADRzhnga/8LLIFAKgAzZnZHCCgC0xEiAJ2KA4dJiKYOLA2dGXJAhokALYyCcQgMAOwAAAAAAAAACAAAAAAAAAAAAAAAAAAA==

> <PUBCHEM_IUPAC_OPENEYE_NAME>
7-[4-(1-methylsulfonyl-4-piperidyl)phenyl]-N-[[(2S)-morpholin-2-yl]methyl]pyrido[3,4-b]pyrazin-5-amine

> <PUBCHEM_IUPAC_CAS_NAME>
7-[4-(1-methylsulfonyl-4-piperidinyl)phenyl]-N-[[(2S)-2-morpholinyl]methyl]-5-pyrido[3,4-b]pyrazinamine

> <PUBCHEM_IUPAC_NAME_MARKUP>
7-[4-(1-methylsulfonylpiperidin-4-yl)phenyl]-<I>N</I>-[[(2<I>S</I>)-morpholin-2-yl]methyl]pyrido[3,4-b]pyrazin-5-amine

> <PUBCHEM_IUPAC_NAME>
7-[4-(1-methylsulfonylpiperidin-4-yl)phenyl]-N-[[(2S)-morpholin-2-yl]methyl]pyrido[3,4-b]pyrazin-5-amine

> <PUBCHEM_IUPAC_SYSTEMATIC_NAME>
7-[4-(1-methylsulfonylpiperidin-4-yl)phenyl]-N-[[(2S)-morpholin-2-yl]methyl]pyrido[3,4-b]pyrazin-5-amine

> <PUBCHEM_IUPAC_TRADITIONAL_NAME>
[7-[4-(1-mesyl-4-piperidyl)phenyl]pyrido[3,4-b]pyrazin-5-yl]-[[(2S)-morpholin-2-yl]methyl]amine

> <PUBCHEM_IUPAC_INCHI>
InChI=1S/C24H30N6O3S/c1-34(31,32)30-11-6-18(7-12-30)17-2-4-19(5-3-17)21-14-22-23(27-9-8-26-22)24(29-21)28-16-20-15-25-10-13-33-20/h2-5,8-9,14,18,20,25H,6-7,10-13,15-16H2,1H3,(H,28,29)/t20-/m0/s1

> <PUBCHEM_IUPAC_INCHIKEY>
NJIAKNWTIVDSDA-FQEVSTJZSA-N

> <PUBCHEM_XLOGP3_AA>
1.2

> <PUBCHEM_EXACT_MASS>
482.21001001

> <PUBCHEM_MOLECULAR_FORMULA>
C24H30N6O3S

> <PUBCHEM_MOLECULAR_WEIGHT>
482.6

> <PUBCHEM_OPENEYE_CAN_SMILES>
CS(=O)(=O)N1CCC(CC1)C2=CC=C(C=C2)C3=CC4=NC=CN=C4C(=N3)NCC5CNCCO5

> <PUBCHEM_OPENEYE_ISO_SMILES>
CS(=O)(=O)N1CCC(CC1)C2=CC=C(C=C2)C3=CC4=NC=CN=C4C(=N3)NC[C@@H]5CNCCO5

> <PUBCHEM_CACTVS_TPSA>
118

> <PUBCHEM_MONOISOTOPIC_WEIGHT>
482.21001001

> <PUBCHEM_TOTAL_CHARGE>
0

> <PUBCHEM_HEAVY_ATOM_COUNT>
34

> <PUBCHEM_ATOM_DEF_STEREO_COUNT>
1

> <PUBCHEM_ATOM_UDEF_STEREO_COUNT>
0

> <PUBCHEM_BOND_DEF_STEREO_COUNT>
0

> <PUBCHEM_BOND_UDEF_STEREO_COUNT>
0

> <PUBCHEM_ISOTOPIC_ATOM_COUNT>
0

> <PUBCHEM_COMPONENT_COUNT>
1

> <PUBCHEM_CACTVS_TAUTO_COUNT>
-1

> <PUBCHEM_COORDINATE_TYPE>
1
5
255

> <PUBCHEM_BONDANNOTATIONS>
10  32  8
10  34  8
16  17  8
16  18  8
17  20  8
18  21  8
20  22  8
21  22  8
23  25  6
26  30  8
29  31  8
30  32  8
31  32  8
33  34  8
8  26  8
8  29  8
9  31  8
9  33  8

$$$$
129045720
  -OEChem-11282412102D

 57 61  0     1  0  0  0  0  0999 V2000
    9.4596   -1.7522    0.0000 Cl  0  0  0  0  0  0  0  0  0  0  0  0
    4.2690    1.9812    0.0000 O   0  0  0  0  0  0  0  0  0  0  0  0
    2.5369    2.9812    0.0000 O   0  0  0  0  0  0  0  0  0  0  0  0
    7.4561    0.4807    0.0000 O   0  0  0  0  0  0  0  0  0  0  0  0
   12.0380    0.5613    0.0000 O   0  0  0  0  0  0  0  0  0  0  0  0
    6.0010   -0.0188    0.0000 N   0  0  0  0  0  0  0  0  0  0  0  0
    5.1350   -1.5188    0.0000 N   0  0  0  0  0  0  0  0  0  0  0  0
    7.8133   -2.8236    0.0000 N   0  0  0  0  0  0  0  0  0  0  0  0
    6.0010   -3.0188    0.0000 N   0  0  0  0  0  0  0  0  0  0  0  0
    5.1350    0.4812    0.0000 C   0  0  2  0  0  0  0  0  0  0  0  0
    4.2690   -0.0188    0.0000 C   0  0  0  0  0  0  0  0  0  0  0  0
    3.4030    0.4812    0.0000 C   0  0  0  0  0  0  0  0  0  0  0  0
    3.4030    1.4812    0.0000 C   0  0  1  0  0  0  0  0  0  0  0  0
    5.1350    1.4812    0.0000 C   0  0  0  0  0  0  0  0  0  0  0  0
    2.5369    1.9812    0.0000 C   0  0  0  0  0  0  0  0  0  0  0  0
    6.0010   -1.0188    0.0000 C   0  0  0  0  0  0  0  0  0  0  0  0
    6.8671   -1.5188    0.0000 C   0  0  0  0  0  0  0  0  0  0  0  0
    7.8133   -1.2141    0.0000 C   0  0  0  0  0  0  0  0  0  0  0  0
    6.8671   -2.5188    0.0000 C   0  0  0  0  0  0  0  0  0  0  0  0
    8.3969   -2.0188    0.0000 C   0  0  0  0  0  0  0  0  0  0  0  0
    8.1240   -0.2636    0.0000 C   0  0  0  0  0  0  0  0  0  0  0  0
    5.1350   -2.5188    0.0000 C   0  0  0  0  0  0  0  0  0  0  0  0
    9.1024   -0.0573    0.0000 C   0  0  0  0  0  0  0  0  0  0  0  0
    9.7703   -0.8016    0.0000 C   0  0  0  0  0  0  0  0  0  0  0  0
    9.4131    0.8932    0.0000 C   0  0  0  0  0  0  0  0  0  0  0  0
   10.7488   -0.5954    0.0000 C   0  0  0  0  0  0  0  0  0  0  0  0
   10.3916    1.0994    0.0000 C   0  0  0  0  0  0  0  0  0  0  0  0
   11.0595    0.3551    0.0000 C   0  0  0  0  0  0  0  0  0  0  0  0
   12.3486    1.5118    0.0000 C   0  0  0  0  0  0  0  0  0  0  0  0
   13.3271    1.7180    0.0000 C   0  0  0  0  0  0  0  0  0  0  0  0
   11.6808    2.2561    0.0000 C   0  0  0  0  0  0  0  0  0  0  0  0
   13.6378    2.6686    0.0000 C   0  0  0  0  0  0  0  0  0  0  0  0
   11.9914    3.2066    0.0000 C   0  0  0  0  0  0  0  0  0  0  0  0
   12.9700    3.4129    0.0000 C   0  0  0  0  0  0  0  0  0  0  0  0
    5.1350   -0.1388    0.0000 H   0  0  0  0  0  0  0  0  0  0  0  0
    3.8705   -0.4938    0.0000 H   0  0  0  0  0  0  0  0  0  0  0  0
    4.6675   -0.4938    0.0000 H   0  0  0  0  0  0  0  0  0  0  0  0
    2.7924    0.5888    0.0000 H   0  0  0  0  0  0  0  0  0  0  0  0
    3.1909   -0.1014    0.0000 H   0  0  0  0  0  0  0  0  0  0  0  0
    3.4030    2.1012    0.0000 H   0  0  0  0  0  0  0  0  0  0  0  0
    5.7456    1.3735    0.0000 H   0  0  0  0  0  0  0  0  0  0  0  0
    5.3471    2.0638    0.0000 H   0  0  0  0  0  0  0  0  0  0  0  0
    6.5380    0.2912    0.0000 H   0  0  0  0  0  0  0  0  0  0  0  0
    1.9264    2.0888    0.0000 H   0  0  0  0  0  0  0  0  0  0  0  0
    2.3249    1.3986    0.0000 H   0  0  0  0  0  0  0  0  0  0  0  0
    2.0000    3.2912    0.0000 H   0  0  0  0  0  0  0  0  0  0  0  0
    9.0169   -2.0188    0.0000 H   0  0  0  0  0  0  0  0  0  0  0  0
    8.0059   -3.4129    0.0000 H   0  0  0  0  0  0  0  0  0  0  0  0
    4.5981   -2.8288    0.0000 H   0  0  0  0  0  0  0  0  0  0  0  0
    8.9990    1.3546    0.0000 H   0  0  0  0  0  0  0  0  0  0  0  0
   11.1629   -1.0569    0.0000 H   0  0  0  0  0  0  0  0  0  0  0  0
   10.5842    1.6887    0.0000 H   0  0  0  0  0  0  0  0  0  0  0  0
   13.7412    1.2566    0.0000 H   0  0  0  0  0  0  0  0  0  0  0  0
   11.0741    2.1283    0.0000 H   0  0  0  0  0  0  0  0  0  0  0  0
   14.2445    2.7964    0.0000 H   0  0  0  0  0  0  0  0  0  0  0  0
   11.5774    3.6681    0.0000 H   0  0  0  0  0  0  0  0  0  0  0  0
   13.1626    4.0022    0.0000 H   0  0  0  0  0  0  0  0  0  0  0  0
  1 24  1  0  0  0  0
  2 13  1  0  0  0  0
  2 14  1  0  0  0  0
  3 15  1  0  0  0  0
  3 46  1  0  0  0  0
  4 21  2  0  0  0  0
  5 28  1  0  0  0  0
  5 29  1  0  0  0  0
 10  6  1  6  0  0  0
  6 16  1  0  0  0  0
  6 43  1  0  0  0  0
  7 16  2  0  0  0  0
  7 22  1  0  0  0  0
  8 19  1  0  0  0  0
  8 20  1  0  0  0  0
  8 48  1  0  0  0  0
  9 19  1  0  0  0  0
  9 22  2  0  0  0  0
 10 11  1  0  0  0  0
 10 14  1  0  0  0  0
 10 35  1  0  0  0  0
 11 12  1  0  0  0  0
 11 36  1  0  0  0  0
 11 37  1  0  0  0  0
 12 13  1  0  0  0  0
 12 38  1  0  0  0  0
 12 39  1  0  0  0  0
 13 15  1  1  0  0  0
 13 40  1  0  0  0  0
 14 41  1  0  0  0  0
 14 42  1  0  0  0  0
 15 44  1  0  0  0  0
 15 45  1  0  0  0  0
 16 17  1  0  0  0  0
 17 18  1  0  0  0  0
 17 19  2  0  0  0  0
 18 20  2  0  0  0  0
 18 21  1  0  0  0  0
 20 47  1  0  0  0  0
 21 23  1  0  0  0  0
 22 49  1  0  0  0  0
 23 24  2  0  0  0  0
 23 25  1  0  0  0  0
 24 26  1  0  0  0  0
 25 27  2  0  0  0  0
 25 50  1  0  0  0  0
 26 28  2  0  0  0  0
 26 51  1  0  0  0  0
 27 28  1  0  0  0  0
 27 52  1  0  0  0  0
 29 30  2  0  0  0  0
 29 31  1  0  0  0  0
 30 32  1  0  0  0  0
 30 53  1  0  0  0  0
 31 33  2  0  0  0  0
 31 54  1  0  0  0  0
 32 34  2  0  0  0  0
 32 55  1  0  0  0  0
 33 34  1  0  0  0  0
 33 56  1  0  0  0  0
 34 57  1  0  0  0  0
M  END
> <PUBCHEM_COMPOUND_CID>
129045720

> <PUBCHEM_COMPOUND_CANONICALIZED>
1

> <PUBCHEM_CACTVS_COMPLEXITY>
681

> <PUBCHEM_CACTVS_HBOND_ACCEPTOR>
7

> <PUBCHEM_CACTVS_HBOND_DONOR>
3

> <PUBCHEM_CACTVS_ROTATABLE_BOND>
7

> <PUBCHEM_CACTVS_SUBSKEYS>
AAADceB7uAAEAAAAAAAAAAAAAAAAAWAAAAA8aIEAAAAAAFgB/AAAHgIQCAAADD7hmyY9tt7JlgCoArJ3ZACCiCm1JaAJ2aEuTtiPPnrF/9uHfajs0BPb7ee83OPOoAAAAQABAABAAAACAAIAAAAAAAAAAA==

> <PUBCHEM_IUPAC_OPENEYE_NAME>
(2-chloro-4-phenoxy-phenyl)-[4-[[(3R,6S)-6-(hydroxymethyl)tetrahydropyran-3-yl]amino]-7H-pyrrolo[2,3-d]pyrimidin-5-yl]methanone

> <PUBCHEM_IUPAC_CAS_NAME>
(2-chloro-4-phenoxyphenyl)-[4-[[(3R,6S)-6-(hydroxymethyl)-3-oxanyl]amino]-7H-pyrrolo[2,3-d]pyrimidin-5-yl]methanone

> <PUBCHEM_IUPAC_NAME_MARKUP>
(2-chloro-4-phenoxyphenyl)-[4-[[(3<I>R</I>,6<I>S</I>)-6-(hydroxymethyl)oxan-3-yl]amino]-7<I>H</I>-pyrrolo[2,3-d]pyrimidin-5-yl]methanone

> <PUBCHEM_IUPAC_NAME>
(2-chloro-4-phenoxyphenyl)-[4-[[(3R,6S)-6-(hydroxymethyl)oxan-3-yl]amino]-7H-pyrrolo[2,3-d]pyrimidin-5-yl]methanone

> <PUBCHEM_IUPAC_SYSTEMATIC_NAME>
(2-chloranyl-4-phenoxy-phenyl)-[4-[[(3R,6S)-6-(hydroxymethyl)oxan-3-yl]amino]-7H-pyrrolo[2,3-d]pyrimidin-5-yl]methanone

> <PUBCHEM_IUPAC_TRADITIONAL_NAME>
(2-chloro-4-phenoxy-phenyl)-[4-[[(3R,6S)-6-methyloltetrahydropyran-3-yl]amino]-7H-pyrrolo[2,3-d]pyrimidin-5-yl]methanone

> <PUBCHEM_IUPAC_INCHI>
InChI=1S/C25H23ClN4O4/c26-21-10-17(34-16-4-2-1-3-5-16)8-9-19(21)23(32)20-11-27-24-22(20)25(29-14-28-24)30-15-6-7-18(12-31)33-13-15/h1-5,8-11,14-15,18,31H,6-7,12-13H2,(H2,27,28,29,30)/t15-,18+/m1/s1

> <PUBCHEM_IUPAC_INCHIKEY>
JSFCZQSJQXFJDS-QAPCUYQASA-N

> <PUBCHEM_XLOGP3_AA>
4.3

> <PUBCHEM_EXACT_MASS>
478.1407829

> <PUBCHEM_MOLECULAR_FORMULA>
C25H23ClN4O4

> <PUBCHEM_MOLECULAR_WEIGHT>
478.9

> <PUBCHEM_OPENEYE_CAN_SMILES>
C1CC(OCC1NC2=NC=NC3=C2C(=CN3)C(=O)C4=C(C=C(C=C4)OC5=CC=CC=C5)Cl)CO

> <PUBCHEM_OPENEYE_ISO_SMILES>
C1C[C@H](OC[C@@H]1NC2=NC=NC3=C2C(=CN3)C(=O)C4=C(C=C(C=C4)OC5=CC=CC=C5)Cl)CO

> <PUBCHEM_CACTVS_TPSA>
109

> <PUBCHEM_MONOISOTOPIC_WEIGHT>
478.1407829

> <PUBCHEM_TOTAL_CHARGE>
0

> <PUBCHEM_HEAVY_ATOM_COUNT>
34

> <PUBCHEM_ATOM_DEF_STEREO_COUNT>
2

> <PUBCHEM_ATOM_UDEF_STEREO_COUNT>
0

> <PUBCHEM_BOND_DEF_STEREO_COUNT>
0

> <PUBCHEM_BOND_UDEF_STEREO_COUNT>
0

> <PUBCHEM_ISOTOPIC_ATOM_COUNT>
0

> <PUBCHEM_COMPONENT_COUNT>
1

> <PUBCHEM_CACTVS_TAUTO_COUNT>
-1

> <PUBCHEM_COORDINATE_TYPE>
1
5
255

> <PUBCHEM_BONDANNOTATIONS>
13  15  5
16  17  8
17  18  8
17  19  8
18  20  8
23  24  8
23  25  8
24  26  8
25  27  8
26  28  8
27  28  8
29  30  8
29  31  8
30  32  8
31  33  8
32  34  8
33  34  8
10  6  6
7  16  8
7  22  8
8  19  8
8  20  8
9  19  8
9  22  8

$$$$
24779724
  -OEChem-11282412102D

 39 43  0     0  0  0  0  0  0999 V2000
    7.1370   -0.9357    0.0000 S   0  0  0  0  0  0  0  0  0  0  0  0
    5.3632   -1.0306    0.0000 N   0  0  0  0  0  0  0  0  0  0  0  0
    5.0525   -0.0801    0.0000 N   0  0  0  0  0  0  0  0  0  0  0  0
    2.8100    2.3840    0.0000 N   0  0  0  0  0  0  0  0  0  0  0  0
    5.1961   -2.6337    0.0000 N   0  0  0  0  0  0  0  0  0  0  0  0
    6.1679   -2.4245    0.0000 N   0  0  0  0  0  0  0  0  0  0  0  0
    3.7606    2.6947    0.0000 N   0  0  0  0  0  0  0  0  0  0  0  0
   10.6290   -2.9704    0.0000 N   0  0  0  0  0  0  0  0  0  0  0  0
    4.0740    0.1261    0.0000 C   0  0  0  0  0  0  0  0  0  0  0  0
    3.7634    1.0766    0.0000 C   0  0  0  0  0  0  0  0  0  0  0  0
    4.6953   -1.7749    0.0000 C   0  0  0  0  0  0  0  0  0  0  0  0
    6.2710   -1.4357    0.0000 C   0  0  0  0  0  0  0  0  0  0  0  0
    3.4062   -0.6182    0.0000 C   0  0  0  0  0  0  0  0  0  0  0  0
    3.7168   -1.5687    0.0000 C   0  0  0  0  0  0  0  0  0  0  0  0
    9.7351   -1.4357    0.0000 C   0  0  0  0  0  0  0  0  0  0  0  0
    8.0030   -1.4357    0.0000 C   0  0  0  0  0  0  0  0  0  0  0  0
    2.8118    1.3840    0.0000 C   0  0  0  0  0  0  0  0  0  0  0  0
    9.7351   -2.4357    0.0000 C   0  0  0  0  0  0  0  0  0  0  0  0
    8.8690   -0.9357    0.0000 C   0  0  0  0  0  0  0  0  0  0  0  0
    4.3497    1.8867    0.0000 C   0  0  0  0  0  0  0  0  0  0  0  0
    8.0030   -2.4357    0.0000 C   0  0  0  0  0  0  0  0  0  0  0  0
    8.8690   -2.9357    0.0000 C   0  0  0  0  0  0  0  0  0  0  0  0
   10.6290   -0.9011    0.0000 C   0  0  0  0  0  0  0  0  0  0  0  0
    2.0000    2.9704    0.0000 C   0  0  0  0  0  0  0  0  0  0  0  0
   11.5351   -1.4149    0.0000 C   0  0  0  0  0  0  0  0  0  0  0  0
   11.5351   -2.4566    0.0000 C   0  0  0  0  0  0  0  0  0  0  0  0
    2.7995   -0.4903    0.0000 H   0  0  0  0  0  0  0  0  0  0  0  0
    3.3028   -2.0302    0.0000 H   0  0  0  0  0  0  0  0  0  0  0  0
    2.3108    1.0187    0.0000 H   0  0  0  0  0  0  0  0  0  0  0  0
    8.8690   -0.3157    0.0000 H   0  0  0  0  0  0  0  0  0  0  0  0
    4.9697    1.8878    0.0000 H   0  0  0  0  0  0  0  0  0  0  0  0
    7.4661   -2.7457    0.0000 H   0  0  0  0  0  0  0  0  0  0  0  0
    8.8690   -3.5557    0.0000 H   0  0  0  0  0  0  0  0  0  0  0  0
   10.6218   -0.2811    0.0000 H   0  0  0  0  0  0  0  0  0  0  0  0
    2.3636    3.4726    0.0000 H   0  0  0  0  0  0  0  0  0  0  0  0
    1.4978    3.3340    0.0000 H   0  0  0  0  0  0  0  0  0  0  0  0
    1.6364    2.4682    0.0000 H   0  0  0  0  0  0  0  0  0  0  0  0
   12.0708   -1.1029    0.0000 H   0  0  0  0  0  0  0  0  0  0  0  0
   12.0708   -2.7686    0.0000 H   0  0  0  0  0  0  0  0  0  0  0  0
  1 12  1  0  0  0  0
  1 16  1  0  0  0  0
  2  3  1  0  0  0  0
  2 11  1  0  0  0  0
  2 12  1  0  0  0  0
  3  9  2  0  0  0  0
  4  7  1  0  0  0  0
  4 17  1  0  0  0  0
  4 24  1  0  0  0  0
  5  6  1  0  0  0  0
  5 11  2  0  0  0  0
  6 12  2  0  0  0  0
  7 20  2  0  0  0  0
  8 18  1  0  0  0  0
  8 26  2  0  0  0  0
  9 10  1  0  0  0  0
  9 13  1  0  0  0  0
 10 17  2  0  0  0  0
 10 20  1  0  0  0  0
 11 14  1  0  0  0  0
 13 14  2  0  0  0  0
 13 27  1  0  0  0  0
 14 28  1  0  0  0  0
 15 18  2  0  0  0  0
 15 19  1  0  0  0  0
 15 23  1  0  0  0  0
 16 19  2  0  0  0  0
 16 21  1  0  0  0  0
 17 29  1  0  0  0  0
 18 22  1  0  0  0  0
 19 30  1  0  0  0  0
 20 31  1  0  0  0  0
 21 22  2  0  0  0  0
 21 32  1  0  0  0  0
 22 33  1  0  0  0  0
 23 25  2  0  0  0  0
 23 34  1  0  0  0  0
 24 35  1  0  0  0  0
 24 36  1  0  0  0  0
 24 37  1  0  0  0  0
 25 26  1  0  0  0  0
 25 38  1  0  0  0  0
 26 39  1  0  0  0  0
M  END
> <PUBCHEM_COMPOUND_CID>
24779724

> <PUBCHEM_COMPOUND_CANONICALIZED>
1

> <PUBCHEM_CACTVS_COMPLEXITY>
494

> <PUBCHEM_CACTVS_HBOND_ACCEPTOR>
6

> <PUBCHEM_CACTVS_HBOND_DONOR>
0

> <PUBCHEM_CACTVS_ROTATABLE_BOND>
3

> <PUBCHEM_CACTVS_SUBSKEYS>
AAADccB7gABAAAAAAAAAAAAAAAAAAWLAAAA8WIAAAAAAAFix/gAAHAQIAAAADAjBXwQ/8f4IEAiiAzZnZACS1CtxirAd2Dg4ZJiIKOLg2dGEpAhgiALIyCcQgIAOAAQAgAACAAAACAEAAAQAAAAAAAAAAA==

> <PUBCHEM_IUPAC_OPENEYE_NAME>
6-[[6-(1-methylpyrazol-4-yl)-[1,2,4]triazolo[4,3-b]pyridazin-3-yl]sulfanyl]quinoline

> <PUBCHEM_IUPAC_CAS_NAME>
6-[[6-(1-methyl-4-pyrazolyl)-[1,2,4]triazolo[4,3-b]pyridazin-3-yl]thio]quinoline

> <PUBCHEM_IUPAC_NAME_MARKUP>
6-[[6-(1-methylpyrazol-4-yl)-[1,2,4]triazolo[4,3-b]pyridazin-3-yl]sulfanyl]quinoline

> <PUBCHEM_IUPAC_NAME>
6-[[6-(1-methylpyrazol-4-yl)-[1,2,4]triazolo[4,3-b]pyridazin-3-yl]sulfanyl]quinoline

> <PUBCHEM_IUPAC_SYSTEMATIC_NAME>
6-[[6-(1-methylpyrazol-4-yl)-[1,2,4]triazolo[4,3-b]pyridazin-3-yl]sulfanyl]quinoline

> <PUBCHEM_IUPAC_TRADITIONAL_NAME>
6-[[6-(1-methylpyrazol-4-yl)-[1,2,4]triazolo[4,3-b]pyridazin-3-yl]thio]quinoline

> <PUBCHEM_IUPAC_INCHI>
InChI=1S/C18H13N7S/c1-24-11-13(10-20-24)16-6-7-17-21-22-18(25(17)23-16)26-14-4-5-15-12(9-14)3-2-8-19-15/h2-11H,1H3

> <PUBCHEM_IUPAC_INCHIKEY>
BCZUAADEACICHN-UHFFFAOYSA-N

> <PUBCHEM_XLOGP3_AA>
2.4

> <PUBCHEM_EXACT_MASS>
359.09531462

> <PUBCHEM_MOLECULAR_FORMULA>
C18H13N7S

> <PUBCHEM_MOLECULAR_WEIGHT>
359.4

> <PUBCHEM_OPENEYE_CAN_SMILES>
CN1C=C(C=N1)C2=NN3C(=NN=C3SC4=CC5=C(C=C4)N=CC=C5)C=C2

> <PUBCHEM_OPENEYE_ISO_SMILES>
CN1C=C(C=N1)C2=NN3C(=NN=C3SC4=CC5=C(C=C4)N=CC=C5)C=C2

> <PUBCHEM_CACTVS_TPSA>
99.1

> <PUBCHEM_MONOISOTOPIC_WEIGHT>
359.09531462

> <PUBCHEM_TOTAL_CHARGE>
0

> <PUBCHEM_HEAVY_ATOM_COUNT>
26

> <PUBCHEM_ATOM_DEF_STEREO_COUNT>
0

> <PUBCHEM_ATOM_UDEF_STEREO_COUNT>
0

> <PUBCHEM_BOND_DEF_STEREO_COUNT>
0

> <PUBCHEM_BOND_UDEF_STEREO_COUNT>
0

> <PUBCHEM_ISOTOPIC_ATOM_COUNT>
0

> <PUBCHEM_COMPONENT_COUNT>
1

> <PUBCHEM_CACTVS_TAUTO_COUNT>
-1

> <PUBCHEM_COORDINATE_TYPE>
1
5
255

> <PUBCHEM_BONDANNOTATIONS>
10  17  8
10  20  8
11  14  8
13  14  8
15  18  8
15  19  8
15  23  8
16  19  8
16  21  8
18  22  8
2  11  8
2  12  8
2  3  8
21  22  8
23  25  8
25  26  8
3  9  8
4  17  8
4  7  8
5  11  8
5  6  8
6  12  8
7  20  8
8  18  8
8  26  8
9  13  8

$$$$
25008120
  -OEChem-11282412102D

 66 67  0     0  0  0  0  0  0999 V2000
   14.1961   -2.2262    0.0000 P   0  0  0  0  0  0  0  0  0  0  0  0
   15.0621   -3.7262    0.0000 Na  0  3  0  0  0  0  0  0  0  0  0  0
   15.6961   -1.3602    0.0000 Na  0  3  0  0  0  0  0  0  0  0  0  0
    9.7922    2.2496    0.0000 F   0  0  0  0  0  0  0  0  0  0  0  0
   13.3301    2.2738    0.0000 O   0  0  0  0  0  0  0  0  0  0  0  0
   15.0621    0.2738    0.0000 O   0  0  0  0  0  0  0  0  0  0  0  0
   14.1961   -1.2262    0.0000 O   0  0  0  0  0  0  0  0  0  0  0  0
   14.1961   -3.2262    0.0000 O   0  5  0  0  0  0  0  0  0  0  0  0
   15.1961   -2.2262    0.0000 O   0  5  0  0  0  0  0  0  0  0  0  0
   13.1961   -2.2262    0.0000 O   0  0  0  0  0  0  0  0  0  0  0  0
    4.5923    3.2296    0.0000 O   0  0  0  0  0  0  0  0  0  0  0  0
    2.8718    0.2229    0.0000 O   0  0  0  0  0  0  0  0  0  0  0  0
    2.8641    2.2229    0.0000 O   0  0  0  0  0  0  0  0  0  0  0  0
   13.3301    0.2738    0.0000 N   0  0  0  0  0  0  0  0  0  0  0  0
   11.5701    0.2391    0.0000 N   0  0  0  0  0  0  0  0  0  0  0  0
    9.8000    0.2496    0.0000 N   0  0  0  0  0  0  0  0  0  0  0  0
    8.0679    0.2429    0.0000 N   0  0  0  0  0  0  0  0  0  0  0  0
    6.3359    0.2363    0.0000 N   0  0  0  0  0  0  0  0  0  0  0  0
    7.1961    1.7396    0.0000 N   0  0  0  0  0  0  0  0  0  0  0  0
   14.1961    1.7738    0.0000 C   0  0  0  0  0  0  0  0  0  0  0  0
   14.1961    0.7738    0.0000 C   0  0  0  0  0  0  0  0  0  0  0  0
   12.4641    0.7738    0.0000 C   0  0  0  0  0  0  0  0  0  0  0  0
   15.1961    1.7738    0.0000 C   0  0  0  0  0  0  0  0  0  0  0  0
   14.6961    2.6398    0.0000 C   0  0  0  0  0  0  0  0  0  0  0  0
   12.4641    1.7738    0.0000 C   0  0  0  0  0  0  0  0  0  0  0  0
   13.3301   -0.7262    0.0000 C   0  0  0  0  0  0  0  0  0  0  0  0
   11.5701    2.3084    0.0000 C   0  0  0  0  0  0  0  0  0  0  0  0
   10.6640    0.7530    0.0000 C   0  0  0  0  0  0  0  0  0  0  0  0
   10.6640    1.7946    0.0000 C   0  0  0  0  0  0  0  0  0  0  0  0
    8.9320    0.7463    0.0000 C   0  0  0  0  0  0  0  0  0  0  0  0
    8.9282    1.7463    0.0000 C   0  0  0  0  0  0  0  0  0  0  0  0
    5.4679    0.7329    0.0000 C   0  0  0  0  0  0  0  0  0  0  0  0
    7.2000    0.7396    0.0000 C   0  0  0  0  0  0  0  0  0  0  0  0
    4.6038    0.2296    0.0000 C   0  0  0  0  0  0  0  0  0  0  0  0
    5.4641    1.7329    0.0000 C   0  0  0  0  0  0  0  0  0  0  0  0
    4.5961    2.2296    0.0000 C   0  0  0  0  0  0  0  0  0  0  0  0
    3.7359    0.7263    0.0000 C   0  0  0  0  0  0  0  0  0  0  0  0
    3.7320    1.7262    0.0000 C   0  0  0  0  0  0  0  0  0  0  0  0
    8.0602    2.2429    0.0000 C   0  0  0  0  0  0  0  0  0  0  0  0
    3.7243    3.7262    0.0000 C   0  0  0  0  0  0  0  0  0  0  0  0
    2.8757   -0.7771    0.0000 C   0  0  0  0  0  0  0  0  0  0  0  0
    2.0000    1.7196    0.0000 C   0  0  0  0  0  0  0  0  0  0  0  0
   15.1961    1.1538    0.0000 H   0  0  0  0  0  0  0  0  0  0  0  0
   15.8161    1.7738    0.0000 H   0  0  0  0  0  0  0  0  0  0  0  0
   15.1961    2.3938    0.0000 H   0  0  0  0  0  0  0  0  0  0  0  0
   15.2330    2.3298    0.0000 H   0  0  0  0  0  0  0  0  0  0  0  0
   15.0061    3.1767    0.0000 H   0  0  0  0  0  0  0  0  0  0  0  0
   14.1592    2.9498    0.0000 H   0  0  0  0  0  0  0  0  0  0  0  0
   12.7195   -0.6186    0.0000 H   0  0  0  0  0  0  0  0  0  0  0  0
   13.1180   -1.3088    0.0000 H   0  0  0  0  0  0  0  0  0  0  0  0
   11.5773    2.9284    0.0000 H   0  0  0  0  0  0  0  0  0  0  0  0
   10.1283    2.1066    0.0000 H   0  0  0  0  0  0  0  0  0  0  0  0
    9.8023   -0.3704    0.0000 H   0  0  0  0  0  0  0  0  0  0  0  0
    6.3383   -0.3837    0.0000 H   0  0  0  0  0  0  0  0  0  0  0  0
    4.6062   -0.3904    0.0000 H   0  0  0  0  0  0  0  0  0  0  0  0
    5.9998    2.0450    0.0000 H   0  0  0  0  0  0  0  0  0  0  0  0
    8.0578    2.8629    0.0000 H   0  0  0  0  0  0  0  0  0  0  0  0
    4.0323    4.2644    0.0000 H   0  0  0  0  0  0  0  0  0  0  0  0
    3.1862    4.0342    0.0000 H   0  0  0  0  0  0  0  0  0  0  0  0
    3.4164    3.1881    0.0000 H   0  0  0  0  0  0  0  0  0  0  0  0
    2.2557   -0.7795    0.0000 H   0  0  0  0  0  0  0  0  0  0  0  0
    2.8780   -1.3971    0.0000 H   0  0  0  0  0  0  0  0  0  0  0  0
    3.4956   -0.7747    0.0000 H   0  0  0  0  0  0  0  0  0  0  0  0
    1.6879    2.2553    0.0000 H   0  0  0  0  0  0  0  0  0  0  0  0
    1.4643    1.4075    0.0000 H   0  0  0  0  0  0  0  0  0  0  0  0
    2.3121    1.1838    0.0000 H   0  0  0  0  0  0  0  0  0  0  0  0
  1  7  1  0  0  0  0
  1  8  1  0  0  0  0
  1  9  1  0  0  0  0
  1 10  2  0  0  0  0
  4 31  1  0  0  0  0
  5 20  1  0  0  0  0
  5 25  1  0  0  0  0
  6 21  2  0  0  0  0
  7 26  1  0  0  0  0
 11 36  1  0  0  0  0
 11 40  1  0  0  0  0
 12 37  1  0  0  0  0
 12 41  1  0  0  0  0
 13 38  1  0  0  0  0
 13 42  1  0  0  0  0
 14 21  1  0  0  0  0
 14 22  1  0  0  0  0
 14 26  1  0  0  0  0
 15 22  1  0  0  0  0
 15 28  2  0  0  0  0
 16 28  1  0  0  0  0
 16 30  1  0  0  0  0
 16 53  1  0  0  0  0
 17 30  2  0  0  0  0
 17 33  1  0  0  0  0
 18 32  1  0  0  0  0
 18 33  1  0  0  0  0
 18 54  1  0  0  0  0
 19 33  2  0  0  0  0
 19 39  1  0  0  0  0
 20 21  1  0  0  0  0
 20 23  1  0  0  0  0
 20 24  1  0  0  0  0
 22 25  2  0  0  0  0
 23 43  1  0  0  0  0
 23 44  1  0  0  0  0
 23 45  1  0  0  0  0
 24 46  1  0  0  0  0
 24 47  1  0  0  0  0
 24 48  1  0  0  0  0
 25 27  1  0  0  0  0
 26 49  1  0  0  0  0
 26 50  1  0  0  0  0
 27 29  2  0  0  0  0
 27 51  1  0  0  0  0
 28 29  1  0  0  0  0
 29 52  1  0  0  0  0
 30 31  1  0  0  0  0
 31 39  2  0  0  0  0
 32 34  2  0  0  0  0
 32 35  1  0  0  0  0
 34 37  1  0  0  0  0
 34 55  1  0  0  0  0
 35 36  2  0  0  0  0
 35 56  1  0  0  0  0
 36 38  1  0  0  0  0
 37 38  2  0  0  0  0
 39 57  1  0  0  0  0
 40 58  1  0  0  0  0
 40 59  1  0  0  0  0
 40 60  1  0  0  0  0
 41 61  1  0  0  0  0
 41 62  1  0  0  0  0
 41 63  1  0  0  0  0
 42 64  1  0  0  0  0
 42 65  1  0  0  0  0
 42 66  1  0  0  0  0
M  CHG  4   2   1   3   1   8  -1   9  -1
M  END
> <PUBCHEM_COMPOUND_CID>
25008120

> <PUBCHEM_COMPOUND_CANONICALIZED>
1

> <PUBCHEM_CACTVS_COMPLEXITY>
893

> <PUBCHEM_CACTVS_HBOND_ACCEPTOR>
15

> <PUBCHEM_CACTVS_HBOND_DONOR>
2

> <PUBCHEM_CACTVS_ROTATABLE_BOND>
9

> <PUBCHEM_CACTVS_SUBSKEYS>
AAADceB7vTIAAAAAAAAAAAAAAAAAAAAAAAA8WLEAAAAAAACx8AAAHwAQACAADEzBkg4/9pfIFRCoQDd3dIaCiCkxYqAJ2CF/7JiPL+LE+d+HPCrv1x/a6CewcA8AAEAACgAAQAAAgAAUAACAAAAAAAAAAA==

> <PUBCHEM_IUPAC_OPENEYE_NAME>
disodium;[6-[[5-fluoro-2-(3,4,5-trimethoxyanilino)pyrimidin-4-yl]amino]-2,2-dimethyl-3-oxo-pyrido[3,2-b][1,4]oxazin-4-yl]methyl phosphate

> <PUBCHEM_IUPAC_CAS_NAME>
disodium;[6-[[5-fluoro-2-(3,4,5-trimethoxyanilino)-4-pyrimidinyl]amino]-2,2-dimethyl-3-oxo-4-pyrido[3,2-b][1,4]oxazinyl]methyl phosphate

> <PUBCHEM_IUPAC_NAME_MARKUP>
disodium;[6-[[5-fluoro-2-(3,4,5-trimethoxyanilino)pyrimidin-4-yl]amino]-2,2-dimethyl-3-oxopyrido[3,2-b][1,4]oxazin-4-yl]methyl phosphate

> <PUBCHEM_IUPAC_NAME>
disodium;[6-[[5-fluoro-2-(3,4,5-trimethoxyanilino)pyrimidin-4-yl]amino]-2,2-dimethyl-3-oxopyrido[3,2-b][1,4]oxazin-4-yl]methyl phosphate

> <PUBCHEM_IUPAC_SYSTEMATIC_NAME>
disodium;[6-[[5-fluoranyl-2-[(3,4,5-trimethoxyphenyl)amino]pyrimidin-4-yl]amino]-2,2-dimethyl-3-oxidanylidene-pyrido[3,2-b][1,4]oxazin-4-yl]methyl phosphate

> <PUBCHEM_IUPAC_TRADITIONAL_NAME>
disodium;[6-[[5-fluoro-2-(3,4,5-trimethoxyanilino)pyrimidin-4-yl]amino]-3-keto-2,2-dimethyl-pyrido[3,2-b][1,4]oxazin-4-yl]methyl phosphate

> <PUBCHEM_IUPAC_INCHI>
InChI=1S/C23H26FN6O9P.2Na/c1-23(2)21(31)30(11-38-40(32,33)34)20-14(39-23)6-7-17(28-20)27-19-13(24)10-25-22(29-19)26-12-8-15(35-3)18(37-5)16(9-12)36-4;;/h6-10H,11H2,1-5H3,(H2,32,33,34)(H2,25,26,27,28,29);;/q;2*+1/p-2

> <PUBCHEM_IUPAC_INCHIKEY>
HSYBQXDGYCYSGA-UHFFFAOYSA-L

> <PUBCHEM_EXACT_MASS>
624.11218009

> <PUBCHEM_MOLECULAR_FORMULA>
C23H24FN6Na2O9P

> <PUBCHEM_MOLECULAR_WEIGHT>
624.4

> <PUBCHEM_OPENEYE_CAN_SMILES>
CC1(C(=O)N(C2=C(O1)C=CC(=N2)NC3=NC(=NC=C3F)NC4=CC(=C(C(=C4)OC)OC)OC)COP(=O)([O-])[O-])C.[Na+].[Na+]

> <PUBCHEM_OPENEYE_ISO_SMILES>
CC1(C(=O)N(C2=C(O1)C=CC(=N2)NC3=NC(=NC=C3F)NC4=CC(=C(C(=C4)OC)OC)OC)COP(=O)([O-])[O-])C.[Na+].[Na+]

> <PUBCHEM_CACTVS_TPSA>
192

> <PUBCHEM_MONOISOTOPIC_WEIGHT>
624.11218009

> <PUBCHEM_TOTAL_CHARGE>
0

> <PUBCHEM_HEAVY_ATOM_COUNT>
42

> <PUBCHEM_ATOM_DEF_STEREO_COUNT>
0

> <PUBCHEM_ATOM_UDEF_STEREO_COUNT>
0

> <PUBCHEM_BOND_DEF_STEREO_COUNT>
0

> <PUBCHEM_BOND_UDEF_STEREO_COUNT>
0

> <PUBCHEM_ISOTOPIC_ATOM_COUNT>
0

> <PUBCHEM_COMPONENT_COUNT>
3

> <PUBCHEM_CACTVS_TAUTO_COUNT>
-1

> <PUBCHEM_COORDINATE_TYPE>
1
5
255

> <PUBCHEM_BONDANNOTATIONS>
15  22  8
15  28  8
17  30  8
17  33  8
19  33  8
19  39  8
22  25  8
25  27  8
27  29  8
28  29  8
30  31  8
31  39  8
32  34  8
32  35  8
34  37  8
35  36  8
36  38  8
37  38  8

$$$$
25134288
  -OEChem-11282412102D

 58 60  0     0  0  0  0  0  0999 V2000
    5.7744    0.0000    0.0000 Cl  0  0  0  0  0  0  0  0  0  0  0  0
    9.2341    7.7316    0.0000 O   0  0  0  0  0  0  0  0  0  0  0  0
    4.8834    7.1843    0.0000 O   0  0  0  0  0  0  0  0  0  0  0  0
    1.4030    6.1497    0.0000 O   0  0  0  0  0  0  0  0  0  0  0  0
    1.4030    4.1497    0.0000 O   0  0  0  0  0  0  0  0  0  0  0  0
    6.2744   13.4273    0.0000 O   0  0  0  0  0  0  0  0  0  0  0  0
   10.1001    9.2316    0.0000 N   0  0  0  0  0  0  0  0  0  0  0  0
    4.8950    4.1151    0.0000 N   0  0  0  0  0  0  0  0  0  0  0  0
   10.9661    8.7316    0.0000 C   0  0  0  0  0  0  0  0  0  0  0  0
   11.9661    8.7316    0.0000 C   0  0  0  0  0  0  0  0  0  0  0  0
   11.4661    7.8656    0.0000 C   0  0  0  0  0  0  0  0  0  0  0  0
    9.2341    8.7316    0.0000 C   0  0  0  0  0  0  0  0  0  0  0  0
    8.3680    9.2316    0.0000 C   0  0  0  0  0  0  0  0  0  0  0  0
    7.4640    8.7143    0.0000 C   0  0  0  0  0  0  0  0  0  0  0  0
    8.3640   10.2732    0.0000 C   0  0  0  0  0  0  0  0  0  0  0  0
    6.5922    9.2042    0.0000 C   0  0  0  0  0  0  0  0  0  0  0  0
    7.4755    7.7143    0.0000 C   0  0  0  0  0  0  0  0  0  0  0  0
    7.4560   10.7836    0.0000 C   0  0  0  0  0  0  0  0  0  0  0  0
    6.5641   10.2455    0.0000 C   0  0  0  0  0  0  0  0  0  0  0  0
    5.7320    8.6942    0.0000 C   0  0  0  0  0  0  0  0  0  0  0  0
    5.7436    7.6943    0.0000 C   0  0  0  0  0  0  0  0  0  0  0  0
    6.6154    7.2044    0.0000 C   0  0  0  0  0  0  0  0  0  0  0  0
    4.8950    6.1844    0.0000 C   0  0  0  0  0  0  0  0  0  0  0  0
    4.0010    5.6497    0.0000 C   0  0  0  0  0  0  0  0  0  0  0  0
    4.0010    4.6497    0.0000 C   0  0  0  0  0  0  0  0  0  0  0  0
    3.1350    6.1497    0.0000 C   0  0  0  0  0  0  0  0  0  0  0  0
    5.8010    5.6706    0.0000 C   0  0  0  0  0  0  0  0  0  0  0  0
    2.2690    5.6497    0.0000 C   0  0  0  0  0  0  0  0  0  0  0  0
    3.1350    4.1497    0.0000 C   0  0  0  0  0  0  0  0  0  0  0  0
    2.2690    4.6497    0.0000 C   0  0  0  0  0  0  0  0  0  0  0  0
    5.8010    4.6289    0.0000 C   0  0  0  0  0  0  0  0  0  0  0  0
    0.5369    5.6497    0.0000 C   0  0  0  0  0  0  0  0  0  0  0  0
    1.4030    3.1497    0.0000 C   0  0  0  0  0  0  0  0  0  0  0  0
   10.5277    8.2932    0.0000 H   0  0  0  0  0  0  0  0  0  0  0  0
   12.5487    8.5196    0.0000 H   0  0  0  0  0  0  0  0  0  0  0  0
   12.0738    9.3422    0.0000 H   0  0  0  0  0  0  0  0  0  0  0  0
   10.9912    7.4670    0.0000 H   0  0  0  0  0  0  0  0  0  0  0  0
   11.9411    7.4670    0.0000 H   0  0  0  0  0  0  0  0  0  0  0  0
   10.1001    9.8516    0.0000 H   0  0  0  0  0  0  0  0  0  0  0  0
    8.8986   10.5874    0.0000 H   0  0  0  0  0  0  0  0  0  0  0  0
    8.0160    7.4106    0.0000 H   0  0  0  0  0  0  0  0  0  0  0  0
    7.4464   11.4035    0.0000 H   0  0  0  0  0  0  0  0  0  0  0  0
    6.0202   10.5430    0.0000 H   0  0  0  0  0  0  0  0  0  0  0  0
    5.1916    8.9980    0.0000 H   0  0  0  0  0  0  0  0  0  0  0  0
    6.6225    6.5844    0.0000 H   0  0  0  0  0  0  0  0  0  0  0  0
    3.1350    6.7697    0.0000 H   0  0  0  0  0  0  0  0  0  0  0  0
    6.3368    5.9826    0.0000 H   0  0  0  0  0  0  0  0  0  0  0  0
    3.1350    3.5297    0.0000 H   0  0  0  0  0  0  0  0  0  0  0  0
    6.3368    4.3168    0.0000 H   0  0  0  0  0  0  0  0  0  0  0  0
    0.2269    6.1867    0.0000 H   0  0  0  0  0  0  0  0  0  0  0  0
    0.0000    5.3397    0.0000 H   0  0  0  0  0  0  0  0  0  0  0  0
    0.8469    5.1128    0.0000 H   0  0  0  0  0  0  0  0  0  0  0  0
    0.7830    3.1497    0.0000 H   0  0  0  0  0  0  0  0  0  0  0  0
    1.4030    2.5297    0.0000 H   0  0  0  0  0  0  0  0  0  0  0  0
    2.0230    3.1497    0.0000 H   0  0  0  0  0  0  0  0  0  0  0  0
    6.8113   13.7373    0.0000 H   0  0  0  0  0  0  0  0  0  0  0  0
    5.7374   13.7373    0.0000 H   0  0  0  0  0  0  0  0  0  0  0  0
    6.7744    0.0000    0.0000 H   0  0  0  0  0  0  0  0  0  0  0  0
  1 58  1  0  0  0  0
  2 12  2  0  0  0  0
  3 21  1  0  0  0  0
  3 23  1  0  0  0  0
  4 28  1  0  0  0  0
  4 32  1  0  0  0  0
  5 30  1  0  0  0  0
  5 33  1  0  0  0  0
  6 56  1  0  0  0  0
  6 57  1  0  0  0  0
  7  9  1  0  0  0  0
  7 12  1  0  0  0  0
  7 39  1  0  0  0  0
  8 25  2  0  0  0  0
  8 31  1  0  0  0  0
  9 10  1  0  0  0  0
  9 11  1  0  0  0  0
  9 34  1  0  0  0  0
 10 11  1  0  0  0  0
 10 35  1  0  0  0  0
 10 36  1  0  0  0  0
 11 37  1  0  0  0  0
 11 38  1  0  0  0  0
 12 13  1  0  0  0  0
 13 14  1  0  0  0  0
 13 15  2  0  0  0  0
 14 16  2  0  0  0  0
 14 17  1  0  0  0  0
 15 18  1  0  0  0  0
 15 40  1  0  0  0  0
 16 19  1  0  0  0  0
 16 20  1  0  0  0  0
 17 22  2  0  0  0  0
 17 41  1  0  0  0  0
 18 19  2  0  0  0  0
 18 42  1  0  0  0  0
 19 43  1  0  0  0  0
 20 21  2  0  0  0  0
 20 44  1  0  0  0  0
 21 22  1  0  0  0  0
 22 45  1  0  0  0  0
 23 24  2  0  0  0  0
 23 27  1  0  0  0  0
 24 25  1  0  0  0  0
 24 26  1  0  0  0  0
 25 29  1  0  0  0  0
 26 28  2  0  0  0  0
 26 46  1  0  0  0  0
 27 31  2  0  0  0  0
 27 47  1  0  0  0  0
 28 30  1  0  0  0  0
 29 30  2  0  0  0  0
 29 48  1  0  0  0  0
 31 49  1  0  0  0  0
 32 50  1  0  0  0  0
 32 51  1  0  0  0  0
 32 52  1  0  0  0  0
 33 53  1  0  0  0  0
 33 54  1  0  0  0  0
 33 55  1  0  0  0  0
M  END
> <PUBCHEM_COMPOUND_CID>
25134288

> <PUBCHEM_COMPOUND_CANONICALIZED>
1

> <PUBCHEM_CACTVS_COMPLEXITY>
627

> <PUBCHEM_CACTVS_HBOND_ACCEPTOR>
6

> <PUBCHEM_CACTVS_HBOND_DONOR>
3

> <PUBCHEM_CACTVS_ROTATABLE_BOND>
6

> <PUBCHEM_CACTVS_SUBSKEYS>
AAADceB7OAAEAAAAAAAAAAAAGAAAAAAAAAA8YMEAAAAAAADx9AAAHgAQCAAADCzBngY+xvLIFACoAzV3VACCiCA1IiAI2KE+7NgNJvLEtZuGOSrm1hnK6Yf4+P+OoEADAgASQABAgAYEACSAAAAAAAAAAA==

> <PUBCHEM_IUPAC_OPENEYE_NAME>
N-cyclopropyl-6-[(6,7-dimethoxy-4-quinolyl)oxy]naphthalene-1-carboxamide;hydrate;hydrochloride

> <PUBCHEM_IUPAC_CAS_NAME>
N-cyclopropyl-6-[(6,7-dimethoxy-4-quinolinyl)oxy]-1-naphthalenecarboxamide;hydrate;hydrochloride

> <PUBCHEM_IUPAC_NAME_MARKUP>
<I>N</I>-cyclopropyl-6-(6,7-dimethoxyquinolin-4-yl)oxynaphthalene-1-carboxamide;hydrate;hydrochloride

> <PUBCHEM_IUPAC_NAME>
N-cyclopropyl-6-(6,7-dimethoxyquinolin-4-yl)oxynaphthalene-1-carboxamide;hydrate;hydrochloride

> <PUBCHEM_IUPAC_SYSTEMATIC_NAME>
N-cyclopropyl-6-(6,7-dimethoxyquinolin-4-yl)oxy-naphthalene-1-carboxamide;hydrate;hydrochloride

> <PUBCHEM_IUPAC_TRADITIONAL_NAME>
N-cyclopropyl-6-[(6,7-dimethoxy-4-quinolyl)oxy]-1-naphthamide;hydrate;hydrochloride

> <PUBCHEM_IUPAC_INCHI>
InChI=1S/C25H22N2O4.ClH.H2O/c1-29-23-13-20-21(14-24(23)30-2)26-11-10-22(20)31-17-8-9-18-15(12-17)4-3-5-19(18)25(28)27-16-6-7-16;;/h3-5,8-14,16H,6-7H2,1-2H3,(H,27,28);1H;1H2

> <PUBCHEM_IUPAC_INCHIKEY>
QGFVUOOWDYKMIH-UHFFFAOYSA-N

> <PUBCHEM_EXACT_MASS>
468.1451996

> <PUBCHEM_MOLECULAR_FORMULA>
C25H25ClN2O5

> <PUBCHEM_MOLECULAR_WEIGHT>
468.9

> <PUBCHEM_OPENEYE_CAN_SMILES>
COC1=CC2=C(C=CN=C2C=C1OC)OC3=CC4=C(C=C3)C(=CC=C4)C(=O)NC5CC5.O.Cl

> <PUBCHEM_OPENEYE_ISO_SMILES>
COC1=CC2=C(C=CN=C2C=C1OC)OC3=CC4=C(C=C3)C(=CC=C4)C(=O)NC5CC5.O.Cl

> <PUBCHEM_CACTVS_TPSA>
70.7

> <PUBCHEM_MONOISOTOPIC_WEIGHT>
468.1451996

> <PUBCHEM_TOTAL_CHARGE>
0

> <PUBCHEM_HEAVY_ATOM_COUNT>
33

> <PUBCHEM_ATOM_DEF_STEREO_COUNT>
0

> <PUBCHEM_ATOM_UDEF_STEREO_COUNT>
0

> <PUBCHEM_BOND_DEF_STEREO_COUNT>
0

> <PUBCHEM_BOND_UDEF_STEREO_COUNT>
0

> <PUBCHEM_ISOTOPIC_ATOM_COUNT>
0

> <PUBCHEM_COMPONENT_COUNT>
3

> <PUBCHEM_CACTVS_TAUTO_COUNT>
-1

> <PUBCHEM_COORDINATE_TYPE>
1
5
255

> <PUBCHEM_BONDANNOTATIONS>
13  14  8
13  15  8
14  16  8
14  17  8
15  18  8
16  19  8
16  20  8
17  22  8
18  19  8
20  21  8
21  22  8
23  24  8
23  27  8
24  25  8
24  26  8
25  29  8
26  28  8
27  31  8
28  30  8
29  30  8
8  25  8
8  31  8

$$$$
57347523
  -OEChem-11282412102D

 59 62  0     0  0  0  0  0  0999 V2000
   10.5920   -0.4970    0.0000 O   0  0  0  0  0  0  0  0  0  0  0  0
   14.9966    3.3358    0.0000 O   0  0  0  0  0  0  0  0  0  0  0  0
   13.7115    4.4970    0.0000 O   0  0  0  0  0  0  0  0  0  0  0  0
    2.8660   -0.9970    0.0000 O   0  0  0  0  0  0  0  0  0  0  0  0
    4.5981   -3.9970    0.0000 O   0  0  0  0  0  0  0  0  0  0  0  0
   11.0396    0.7940    0.0000 N   0  0  0  0  0  0  0  0  0  0  0  0
    9.0084   -1.3017    0.0000 N   0  0  0  0  0  0  0  0  0  0  0  0
   11.7002    2.2710    0.0000 C   0  0  0  0  0  0  0  0  0  0  0  0
   10.7059    2.3773    0.0000 C   0  0  0  0  0  0  0  0  0  0  0  0
   10.2976    1.4645    0.0000 C   0  0  0  0  0  0  0  0  0  0  0  0
   11.9064    1.2926    0.0000 C   0  0  0  0  0  0  0  0  0  0  0  0
   12.3706    3.0130    0.0000 C   0  0  0  0  0  0  0  0  0  0  0  0
    9.0084    0.3077    0.0000 C   0  0  0  0  0  0  0  0  0  0  0  0
    8.0622    0.0030    0.0000 C   0  0  0  0  0  0  0  0  0  0  0  0
    9.3191    1.2582    0.0000 C   0  0  0  0  0  0  0  0  0  0  0  0
    8.0622   -0.9970    0.0000 C   0  0  0  0  0  0  0  0  0  0  0  0
   10.2074    3.2442    0.0000 C   0  0  0  0  0  0  0  0  0  0  0  0
   13.3484    2.8034    0.0000 C   0  0  0  0  0  0  0  0  0  0  0  0
    9.5920   -0.4970    0.0000 C   0  0  0  0  0  0  0  0  0  0  0  0
   12.8193    0.8842    0.0000 C   0  0  0  0  0  0  0  0  0  0  0  0
    7.1962   -1.4970    0.0000 C   0  0  0  0  0  0  0  0  0  0  0  0
    7.1962    0.5030    0.0000 C   0  0  0  0  0  0  0  0  0  0  0  0
    6.3301   -0.9970    0.0000 C   0  0  0  0  0  0  0  0  0  0  0  0
    6.3301    0.0030    0.0000 C   0  0  0  0  0  0  0  0  0  0  0  0
    5.4641   -1.4970    0.0000 C   0  0  0  0  0  0  0  0  0  0  0  0
   14.0188    3.5454    0.0000 C   0  0  0  0  0  0  0  0  0  0  0  0
    5.4641   -2.4970    0.0000 C   0  0  0  0  0  0  0  0  0  0  0  0
    4.5981   -0.9970    0.0000 C   0  0  0  0  0  0  0  0  0  0  0  0
    3.7320   -1.4970    0.0000 C   0  0  0  0  0  0  0  0  0  0  0  0
    4.5981   -2.9970    0.0000 C   0  0  0  0  0  0  0  0  0  0  0  0
    3.7320   -2.4970    0.0000 C   0  0  0  0  0  0  0  0  0  0  0  0
    2.0000   -1.4970    0.0000 C   0  0  0  0  0  0  0  0  0  0  0  0
    3.7320   -4.4970    0.0000 C   0  0  0  0  0  0  0  0  0  0  0  0
   12.6039    3.5875    0.0000 H   0  0  0  0  0  0  0  0  0  0  0  0
   11.8454    3.3425    0.0000 H   0  0  0  0  0  0  0  0  0  0  0  0
   10.9737    0.1776    0.0000 H   0  0  0  0  0  0  0  0  0  0  0  0
    8.9050    1.7197    0.0000 H   0  0  0  0  0  0  0  0  0  0  0  0
   10.7449    3.5533    0.0000 H   0  0  0  0  0  0  0  0  0  0  0  0
    9.8983    3.7817    0.0000 H   0  0  0  0  0  0  0  0  0  0  0  0
    9.6699    2.9351    0.0000 H   0  0  0  0  0  0  0  0  0  0  0  0
   13.1152    2.2290    0.0000 H   0  0  0  0  0  0  0  0  0  0  0  0
   13.8736    2.4740    0.0000 H   0  0  0  0  0  0  0  0  0  0  0  0
   12.5661    0.3183    0.0000 H   0  0  0  0  0  0  0  0  0  0  0  0
   13.3852    0.6311    0.0000 H   0  0  0  0  0  0  0  0  0  0  0  0
   13.0724    1.4502    0.0000 H   0  0  0  0  0  0  0  0  0  0  0  0
    9.2010   -1.8911    0.0000 H   0  0  0  0  0  0  0  0  0  0  0  0
    7.1962   -2.1170    0.0000 H   0  0  0  0  0  0  0  0  0  0  0  0
    7.1962    1.1230    0.0000 H   0  0  0  0  0  0  0  0  0  0  0  0
    5.7932    0.3130    0.0000 H   0  0  0  0  0  0  0  0  0  0  0  0
    6.0010   -2.8070    0.0000 H   0  0  0  0  0  0  0  0  0  0  0  0
    4.5981   -0.3770    0.0000 H   0  0  0  0  0  0  0  0  0  0  0  0
    3.1951   -2.8070    0.0000 H   0  0  0  0  0  0  0  0  0  0  0  0
   15.4123    3.7958    0.0000 H   0  0  0  0  0  0  0  0  0  0  0  0
    1.6900   -0.9601    0.0000 H   0  0  0  0  0  0  0  0  0  0  0  0
    1.4631   -1.8070    0.0000 H   0  0  0  0  0  0  0  0  0  0  0  0
    2.3100   -2.0340    0.0000 H   0  0  0  0  0  0  0  0  0  0  0  0
    3.4220   -3.9601    0.0000 H   0  0  0  0  0  0  0  0  0  0  0  0
    3.1951   -4.8070    0.0000 H   0  0  0  0  0  0  0  0  0  0  0  0
    4.0420   -5.0340    0.0000 H   0  0  0  0  0  0  0  0  0  0  0  0
  1 19  2  0  0  0  0
  2 26  1  0  0  0  0
  2 53  1  0  0  0  0
  3 26  2  0  0  0  0
  4 29  1  0  0  0  0
  4 32  1  0  0  0  0
  5 30  1  0  0  0  0
  5 33  1  0  0  0  0
  6 10  1  0  0  0  0
  6 11  1  0  0  0  0
  6 36  1  0  0  0  0
  7 16  1  0  0  0  0
  7 19  1  0  0  0  0
  7 46  1  0  0  0  0
  8  9  1  0  0  0  0
  8 11  2  0  0  0  0
  8 12  1  0  0  0  0
  9 10  2  0  0  0  0
  9 17  1  0  0  0  0
 10 15  1  0  0  0  0
 11 20  1  0  0  0  0
 12 18  1  0  0  0  0
 12 34  1  0  0  0  0
 12 35  1  0  0  0  0
 13 14  1  0  0  0  0
 13 15  2  3  0  0  0
 13 19  1  0  0  0  0
 14 16  2  0  0  0  0
 14 22  1  0  0  0  0
 15 37  1  0  0  0  0
 16 21  1  0  0  0  0
 17 38  1  0  0  0  0
 17 39  1  0  0  0  0
 17 40  1  0  0  0  0
 18 26  1  0  0  0  0
 18 41  1  0  0  0  0
 18 42  1  0  0  0  0
 20 43  1  0  0  0  0
 20 44  1  0  0  0  0
 20 45  1  0  0  0  0
 21 23  2  0  0  0  0
 21 47  1  0  0  0  0
 22 24  2  0  0  0  0
 22 48  1  0  0  0  0
 23 24  1  0  0  0  0
 23 25  1  0  0  0  0
 24 49  1  0  0  0  0
 25 27  2  0  0  0  0
 25 28  1  0  0  0  0
 27 30  1  0  0  0  0
 27 50  1  0  0  0  0
 28 29  2  0  0  0  0
 28 51  1  0  0  0  0
 29 31  1  0  0  0  0
 30 31  2  0  0  0  0
 31 52  1  0  0  0  0
 32 54  1  0  0  0  0
 32 55  1  0  0  0  0
 32 56  1  0  0  0  0
 33 57  1  0  0  0  0
 33 58  1  0  0  0  0
 33 59  1  0  0  0  0
M  END
> <PUBCHEM_COMPOUND_CID>
57347523

> <PUBCHEM_COMPOUND_CANONICALIZED>
1

> <PUBCHEM_CACTVS_COMPLEXITY>
743

> <PUBCHEM_CACTVS_HBOND_ACCEPTOR>
5

> <PUBCHEM_CACTVS_HBOND_DONOR>
3

> <PUBCHEM_CACTVS_ROTATABLE_BOND>
7

> <PUBCHEM_CACTVS_SUBSKEYS>
AAADceB7OAAAAAAAAAAAAAAAAAAAAWLAAAAwYAAAAAAAAFgB0AAAHgAQCAAADAyBngIyzpLJlgCoAyXyXACCiCAhIiAImSE2bNgMJ3LEtZuEcChl1BXI6Yec+f+ewAABSAACAACAAAKQAAQAAAAAAAAAAA==

> <PUBCHEM_IUPAC_OPENEYE_NAME>
3-[5-[[6-(3,5-dimethoxyphenyl)-2-oxo-indolin-3-ylidene]methyl]-2,4-dimethyl-1H-pyrrol-3-yl]propanoic acid

> <PUBCHEM_IUPAC_CAS_NAME>
3-[5-[[6-(3,5-dimethoxyphenyl)-2-oxo-1H-indol-3-ylidene]methyl]-2,4-dimethyl-1H-pyrrol-3-yl]propanoic acid

> <PUBCHEM_IUPAC_NAME_MARKUP>
3-[5-[[6-(3,5-dimethoxyphenyl)-2-oxo-1<I>H</I>-indol-3-ylidene]methyl]-2,4-dimethyl-1<I>H</I>-pyrrol-3-yl]propanoic acid

> <PUBCHEM_IUPAC_NAME>
3-[5-[[6-(3,5-dimethoxyphenyl)-2-oxo-1H-indol-3-ylidene]methyl]-2,4-dimethyl-1H-pyrrol-3-yl]propanoic acid

> <PUBCHEM_IUPAC_SYSTEMATIC_NAME>
3-[5-[[6-(3,5-dimethoxyphenyl)-2-oxidanylidene-1H-indol-3-ylidene]methyl]-2,4-dimethyl-1H-pyrrol-3-yl]propanoic acid

> <PUBCHEM_IUPAC_TRADITIONAL_NAME>
3-[5-[[6-(3,5-dimethoxyphenyl)-2-keto-indolin-3-ylidene]methyl]-2,4-dimethyl-1H-pyrrol-3-yl]propionic acid

> <PUBCHEM_IUPAC_INCHI>
InChI=1S/C26H26N2O5/c1-14-20(7-8-25(29)30)15(2)27-23(14)13-22-21-6-5-16(11-24(21)28-26(22)31)17-9-18(32-3)12-19(10-17)33-4/h5-6,9-13,27H,7-8H2,1-4H3,(H,28,31)(H,29,30)

> <PUBCHEM_IUPAC_INCHIKEY>
ZIZSHSPAAJIYOD-UHFFFAOYSA-N

> <PUBCHEM_XLOGP3_AA>
3.8

> <PUBCHEM_EXACT_MASS>
446.18417193

> <PUBCHEM_MOLECULAR_FORMULA>
C26H26N2O5

> <PUBCHEM_MOLECULAR_WEIGHT>
446.5

> <PUBCHEM_OPENEYE_CAN_SMILES>
CC1=C(NC(=C1CCC(=O)O)C)C=C2C3=C(C=C(C=C3)C4=CC(=CC(=C4)OC)OC)NC2=O

> <PUBCHEM_OPENEYE_ISO_SMILES>
CC1=C(NC(=C1CCC(=O)O)C)C=C2C3=C(C=C(C=C3)C4=CC(=CC(=C4)OC)OC)NC2=O

> <PUBCHEM_CACTVS_TPSA>
101

> <PUBCHEM_MONOISOTOPIC_WEIGHT>
446.18417193

> <PUBCHEM_TOTAL_CHARGE>
0

> <PUBCHEM_HEAVY_ATOM_COUNT>
33

> <PUBCHEM_ATOM_DEF_STEREO_COUNT>
0

> <PUBCHEM_ATOM_UDEF_STEREO_COUNT>
0

> <PUBCHEM_BOND_DEF_STEREO_COUNT>
0

> <PUBCHEM_BOND_UDEF_STEREO_COUNT>
1

> <PUBCHEM_ISOTOPIC_ATOM_COUNT>
0

> <PUBCHEM_COMPONENT_COUNT>
1

> <PUBCHEM_CACTVS_TAUTO_COUNT>
-1

> <PUBCHEM_COORDINATE_TYPE>
1
5
255

> <PUBCHEM_BONDANNOTATIONS>
13  15  1
14  16  8
14  22  8
16  21  8
21  23  8
22  24  8
23  24  8
25  27  8
25  28  8
27  30  8
28  29  8
29  31  8
30  31  8
6  10  8
6  11  8
8  11  8
8  9  8
9  10  8

$$$$
11237762
  -OEChem-11282412102D

 58 60  0     0  0  0  0  0  0999 V2000
    6.0437    7.6744    0.0000 Cl  0  0  0  0  0  0  0  0  0  0  0  0
    5.9879   10.7226    0.0000 S   0  0  0  0  0  0  0  0  0  0  0  0
    8.6705    5.2046    0.0000 O   0  0  0  0  0  0  0  0  0  0  0  0
    4.3465    4.6546    0.0000 O   0  0  0  0  0  0  0  0  0  0  0  0
    0.8660    1.6200    0.0000 O   0  0  0  0  0  0  0  0  0  0  0  0
    0.0000    3.1200    0.0000 O   0  0  0  0  0  0  0  0  0  0  0  0
    6.8540   11.2226    0.0000 O   0  0  0  0  0  0  0  0  0  0  0  0
    5.4879   11.5886    0.0000 O   0  0  0  0  0  0  0  0  0  0  0  0
    6.4879    9.8566    0.0000 O   0  0  0  0  0  0  0  0  0  0  0  0
    9.5192    6.7146    0.0000 N   0  0  0  0  0  0  0  0  0  0  0  0
    7.7872    6.6945    0.0000 N   0  0  0  0  0  0  0  0  0  0  0  0
    4.3580    1.5853    0.0000 N   0  0  0  0  0  0  0  0  0  0  0  0
    0.8660    4.6200    0.0000 N   0  0  0  0  0  0  0  0  0  0  0  0
   10.3909    6.2246    0.0000 C   0  0  0  0  0  0  0  0  0  0  0  0
   10.9009    5.3644    0.0000 C   0  0  0  0  0  0  0  0  0  0  0  0
   11.3908    6.2362    0.0000 C   0  0  0  0  0  0  0  0  0  0  0  0
    8.6590    6.2046    0.0000 C   0  0  0  0  0  0  0  0  0  0  0  0
    6.9270    6.1845    0.0000 C   0  0  0  0  0  0  0  0  0  0  0  0
    6.0553    6.6745    0.0000 C   0  0  0  0  0  0  0  0  0  0  0  0
    6.9386    5.1846    0.0000 C   0  0  0  0  0  0  0  0  0  0  0  0
    5.2067    5.1646    0.0000 C   0  0  0  0  0  0  0  0  0  0  0  0
    5.1951    6.1645    0.0000 C   0  0  0  0  0  0  0  0  0  0  0  0
    6.0784    4.6746    0.0000 C   0  0  0  0  0  0  0  0  0  0  0  0
    3.4641    3.1200    0.0000 C   0  0  0  0  0  0  0  0  0  0  0  0
    4.3580    3.6547    0.0000 C   0  0  0  0  0  0  0  0  0  0  0  0
    3.4641    2.1200    0.0000 C   0  0  0  0  0  0  0  0  0  0  0  0
    2.5981    3.6200    0.0000 C   0  0  0  0  0  0  0  0  0  0  0  0
    1.7320    3.1200    0.0000 C   0  0  0  0  0  0  0  0  0  0  0  0
    2.5981    1.6200    0.0000 C   0  0  0  0  0  0  0  0  0  0  0  0
    1.7320    2.1200    0.0000 C   0  0  0  0  0  0  0  0  0  0  0  0
    5.2641    3.1408    0.0000 C   0  0  0  0  0  0  0  0  0  0  0  0
    5.2641    2.0992    0.0000 C   0  0  0  0  0  0  0  0  0  0  0  0
    0.8660    3.6200    0.0000 C   0  0  0  0  0  0  0  0  0  0  0  0
    0.8660    0.6200    0.0000 C   0  0  0  0  0  0  0  0  0  0  0  0
    5.1219   10.2226    0.0000 C   0  0  0  0  0  0  0  0  0  0  0  0
   10.5444    6.8253    0.0000 H   0  0  0  0  0  0  0  0  0  0  0  0
   10.4306    4.9604    0.0000 H   0  0  0  0  0  0  0  0  0  0  0  0
   11.3804    4.9714    0.0000 H   0  0  0  0  0  0  0  0  0  0  0  0
   11.9759    6.0309    0.0000 H   0  0  0  0  0  0  0  0  0  0  0  0
   11.4914    6.8479    0.0000 H   0  0  0  0  0  0  0  0  0  0  0  0
    9.5120    7.3345    0.0000 H   0  0  0  0  0  0  0  0  0  0  0  0
    7.7800    7.3145    0.0000 H   0  0  0  0  0  0  0  0  0  0  0  0
    7.4791    4.8808    0.0000 H   0  0  0  0  0  0  0  0  0  0  0  0
    4.6546    6.4683    0.0000 H   0  0  0  0  0  0  0  0  0  0  0  0
    6.0856    4.0547    0.0000 H   0  0  0  0  0  0  0  0  0  0  0  0
    2.5981    4.2400    0.0000 H   0  0  0  0  0  0  0  0  0  0  0  0
    2.5981    1.0000    0.0000 H   0  0  0  0  0  0  0  0  0  0  0  0
    5.7998    3.4529    0.0000 H   0  0  0  0  0  0  0  0  0  0  0  0
    5.7998    1.7871    0.0000 H   0  0  0  0  0  0  0  0  0  0  0  0
    0.2460    0.6200    0.0000 H   0  0  0  0  0  0  0  0  0  0  0  0
    0.8660    0.0000    0.0000 H   0  0  0  0  0  0  0  0  0  0  0  0
    1.4860    0.6200    0.0000 H   0  0  0  0  0  0  0  0  0  0  0  0
    0.3291    4.9300    0.0000 H   0  0  0  0  0  0  0  0  0  0  0  0
    1.4030    4.9300    0.0000 H   0  0  0  0  0  0  0  0  0  0  0  0
    4.8119   10.7595    0.0000 H   0  0  0  0  0  0  0  0  0  0  0  0
    4.5850    9.9126    0.0000 H   0  0  0  0  0  0  0  0  0  0  0  0
    5.4319    9.6857    0.0000 H   0  0  0  0  0  0  0  0  0  0  0  0
    7.3909   10.9126    0.0000 H   0  0  0  0  0  0  0  0  0  0  0  0
  1 19  1  0  0  0  0
  2  7  1  0  0  0  0
  2  8  2  0  0  0  0
  2  9  2  0  0  0  0
  2 35  1  0  0  0  0
  3 17  2  0  0  0  0
  4 21  1  0  0  0  0
  4 25  1  0  0  0  0
  5 30  1  0  0  0  0
  5 34  1  0  0  0  0
  6 33  2  0  0  0  0
  7 58  1  0  0  0  0
 10 14  1  0  0  0  0
 10 17  1  0  0  0  0
 10 41  1  0  0  0  0
 11 17  1  0  0  0  0
 11 18  1  0  0  0  0
 11 42  1  0  0  0  0
 12 26  2  0  0  0  0
 12 32  1  0  0  0  0
 13 33  1  0  0  0  0
 13 53  1  0  0  0  0
 13 54  1  0  0  0  0
 14 15  1  0  0  0  0
 14 16  1  0  0  0  0
 14 36  1  0  0  0  0
 15 16  1  0  0  0  0
 15 37  1  0  0  0  0
 15 38  1  0  0  0  0
 16 39  1  0  0  0  0
 16 40  1  0  0  0  0
 18 19  2  0  0  0  0
 18 20  1  0  0  0  0
 19 22  1  0  0  0  0
 20 23  2  0  0  0  0
 20 43  1  0  0  0  0
 21 22  2  0  0  0  0
 21 23  1  0  0  0  0
 22 44  1  0  0  0  0
 23 45  1  0  0  0  0
 24 25  2  0  0  0  0
 24 26  1  0  0  0  0
 24 27  1  0  0  0  0
 25 31  1  0  0  0  0
 26 29  1  0  0  0  0
 27 28  2  0  0  0  0
 27 46  1  0  0  0  0
 28 30  1  0  0  0  0
 28 33  1  0  0  0  0
 29 30  2  0  0  0  0
 29 47  1  0  0  0  0
 31 32  2  0  0  0  0
 31 48  1  0  0  0  0
 32 49  1  0  0  0  0
 34 50  1  0  0  0  0
 34 51  1  0  0  0  0
 34 52  1  0  0  0  0
 35 55  1  0  0  0  0
 35 56  1  0  0  0  0
 35 57  1  0  0  0  0
M  END
> <PUBCHEM_COMPOUND_CID>
11237762

> <PUBCHEM_COMPOUND_CANONICALIZED>
1

> <PUBCHEM_CACTVS_COMPLEXITY>
727

> <PUBCHEM_CACTVS_HBOND_ACCEPTOR>
8

> <PUBCHEM_CACTVS_HBOND_DONOR>
4

> <PUBCHEM_CACTVS_ROTATABLE_BOND>
6

> <PUBCHEM_CACTVS_SUBSKEYS>
AAADceB7uABEAAAAAAAAAAAAGAAAAAAAAAA8YIAAAAAAAACx9AAAHgYQCAAADC7Bnia/xvLIFIKoAzV3VHCCiCA1JyAI2KE+btiMJvbFt5vGOWju9hvI6ae4/e/eKEACAwAKABBQgAQGABQAIAAAAAAAAA==

> <PUBCHEM_IUPAC_OPENEYE_NAME>
4-[3-chloro-4-(cyclopropylcarbamoylamino)phenoxy]-7-methoxy-quinoline-6-carboxamide;methanesulfonic acid

> <PUBCHEM_IUPAC_CAS_NAME>
4-[3-chloro-4-[[(cyclopropylamino)-oxomethyl]amino]phenoxy]-7-methoxy-6-quinolinecarboxamide;methanesulfonic acid

> <PUBCHEM_IUPAC_NAME_MARKUP>
4-[3-chloro-4-(cyclopropylcarbamoylamino)phenoxy]-7-methoxyquinoline-6-carboxamide;methanesulfonic acid

> <PUBCHEM_IUPAC_NAME>
4-[3-chloro-4-(cyclopropylcarbamoylamino)phenoxy]-7-methoxyquinoline-6-carboxamide;methanesulfonic acid

> <PUBCHEM_IUPAC_SYSTEMATIC_NAME>
4-[3-chloranyl-4-(cyclopropylcarbamoylamino)phenoxy]-7-methoxy-quinoline-6-carboxamide;methanesulfonic acid

> <PUBCHEM_IUPAC_TRADITIONAL_NAME>
4-[3-chloro-4-(cyclopropylcarbamoylamino)phenoxy]-7-methoxy-quinoline-6-carboxamide;mesylic acid

> <PUBCHEM_IUPAC_INCHI>
InChI=1S/C21H19ClN4O4.CH4O3S/c1-29-19-10-17-13(9-14(19)20(23)27)18(6-7-24-17)30-12-4-5-16(15(22)8-12)26-21(28)25-11-2-3-11;1-5(2,3)4/h4-11H,2-3H2,1H3,(H2,23,27)(H2,25,26,28);1H3,(H,2,3,4)

> <PUBCHEM_IUPAC_INCHIKEY>
HWLFIUUAYLEFCT-UHFFFAOYSA-N

> <PUBCHEM_EXACT_MASS>
522.0975980

> <PUBCHEM_MOLECULAR_FORMULA>
C22H23ClN4O7S

> <PUBCHEM_MOLECULAR_WEIGHT>
523.0

> <PUBCHEM_OPENEYE_CAN_SMILES>
COC1=CC2=NC=CC(=C2C=C1C(=O)N)OC3=CC(=C(C=C3)NC(=O)NC4CC4)Cl.CS(=O)(=O)O

> <PUBCHEM_OPENEYE_ISO_SMILES>
COC1=CC2=NC=CC(=C2C=C1C(=O)N)OC3=CC(=C(C=C3)NC(=O)NC4CC4)Cl.CS(=O)(=O)O

> <PUBCHEM_CACTVS_TPSA>
178

> <PUBCHEM_MONOISOTOPIC_WEIGHT>
522.0975980

> <PUBCHEM_TOTAL_CHARGE>
0

> <PUBCHEM_HEAVY_ATOM_COUNT>
35

> <PUBCHEM_ATOM_DEF_STEREO_COUNT>
0

> <PUBCHEM_ATOM_UDEF_STEREO_COUNT>
0

> <PUBCHEM_BOND_DEF_STEREO_COUNT>
0

> <PUBCHEM_BOND_UDEF_STEREO_COUNT>
0

> <PUBCHEM_ISOTOPIC_ATOM_COUNT>
0

> <PUBCHEM_COMPONENT_COUNT>
2

> <PUBCHEM_CACTVS_TAUTO_COUNT>
-1

> <PUBCHEM_COORDINATE_TYPE>
1
5
255

> <PUBCHEM_BONDANNOTATIONS>
12  26  8
12  32  8
18  19  8
18  20  8
19  22  8
20  23  8
21  22  8
21  23  8
24  25  8
24  26  8
24  27  8
25  31  8
26  29  8
27  28  8
28  30  8
29  30  8
31  32  8

$$$$
5328127
  -OEChem-11282412102D

 53 55  0     0  0  0  0  0  0999 V2000
    6.3301   -2.2500    0.0000 O   0  0  0  0  0  0  0  0  0  0  0  0
    4.5981    3.7500    0.0000 O   0  0  0  0  0  0  0  0  0  0  0  0
    2.8660    0.7500    0.0000 O   0  0  0  0  0  0  0  0  0  0  0  0
    4.5981   -2.2500    0.0000 N   0  0  0  0  0  0  0  0  0  0  0  0
    5.4641   -0.7500    0.0000 N   0  0  0  0  0  0  0  0  0  0  0  0
    7.1962   -0.7500    0.0000 N   0  0  0  0  0  0  0  0  0  0  0  0
    8.9561   -0.7847    0.0000 N   0  0  0  0  0  0  0  0  0  0  0  0
    9.8622    0.7708    0.0000 N   0  0  0  0  0  0  0  0  0  0  0  0
   10.7263   -0.7742    0.0000 N   0  0  0  0  0  0  0  0  0  0  0  0
    4.5981   -3.2500    0.0000 C   0  0  0  0  0  0  0  0  0  0  0  0
    4.5981   -4.2500    0.0000 C   0  0  0  0  0  0  0  0  0  0  0  0
    3.5981   -3.2500    0.0000 C   0  0  0  0  0  0  0  0  0  0  0  0
    5.5981   -3.2500    0.0000 C   0  0  0  0  0  0  0  0  0  0  0  0
    5.4641   -1.7500    0.0000 C   0  0  0  0  0  0  0  0  0  0  0  0
    6.3301    0.7500    0.0000 C   0  0  0  0  0  0  0  0  0  0  0  0
    6.3301   -0.2500    0.0000 C   0  0  0  0  0  0  0  0  0  0  0  0
    5.4641    1.2500    0.0000 C   0  0  0  0  0  0  0  0  0  0  0  0
    7.1962    1.2500    0.0000 C   0  0  0  0  0  0  0  0  0  0  0  0
    8.0622    0.7500    0.0000 C   0  0  0  0  0  0  0  0  0  0  0  0
    8.0622   -0.2500    0.0000 C   0  0  0  0  0  0  0  0  0  0  0  0
    4.5981    0.7500    0.0000 C   0  0  0  0  0  0  0  0  0  0  0  0
    5.4641    2.2500    0.0000 C   0  0  0  0  0  0  0  0  0  0  0  0
    4.5981    2.7500    0.0000 C   0  0  0  0  0  0  0  0  0  0  0  0
    3.7320    1.2500    0.0000 C   0  0  0  0  0  0  0  0  0  0  0  0
    3.7320    2.2500    0.0000 C   0  0  0  0  0  0  0  0  0  0  0  0
    8.9561    1.2847    0.0000 C   0  0  0  0  0  0  0  0  0  0  0  0
    9.8622   -0.2708    0.0000 C   0  0  0  0  0  0  0  0  0  0  0  0
    3.7320    4.2500    0.0000 C   0  0  0  0  0  0  0  0  0  0  0  0
    2.0000    1.2500    0.0000 C   0  0  0  0  0  0  0  0  0  0  0  0
    3.9781   -4.2500    0.0000 H   0  0  0  0  0  0  0  0  0  0  0  0
    4.5981   -4.8700    0.0000 H   0  0  0  0  0  0  0  0  0  0  0  0
    5.2181   -4.2500    0.0000 H   0  0  0  0  0  0  0  0  0  0  0  0
    3.5981   -2.6300    0.0000 H   0  0  0  0  0  0  0  0  0  0  0  0
    2.9781   -3.2500    0.0000 H   0  0  0  0  0  0  0  0  0  0  0  0
    3.5981   -3.8700    0.0000 H   0  0  0  0  0  0  0  0  0  0  0  0
    5.5981   -3.8700    0.0000 H   0  0  0  0  0  0  0  0  0  0  0  0
    6.2181   -3.2500    0.0000 H   0  0  0  0  0  0  0  0  0  0  0  0
    5.5981   -2.6300    0.0000 H   0  0  0  0  0  0  0  0  0  0  0  0
    4.0611   -1.9400    0.0000 H   0  0  0  0  0  0  0  0  0  0  0  0
    4.9272   -0.4400    0.0000 H   0  0  0  0  0  0  0  0  0  0  0  0
    7.1962    1.8700    0.0000 H   0  0  0  0  0  0  0  0  0  0  0  0
    4.5981    0.1300    0.0000 H   0  0  0  0  0  0  0  0  0  0  0  0
    6.0010    2.5600    0.0000 H   0  0  0  0  0  0  0  0  0  0  0  0
    3.1951    2.5600    0.0000 H   0  0  0  0  0  0  0  0  0  0  0  0
    8.9490    1.9046    0.0000 H   0  0  0  0  0  0  0  0  0  0  0  0
    4.0420    4.7869    0.0000 H   0  0  0  0  0  0  0  0  0  0  0  0
    3.1951    4.5600    0.0000 H   0  0  0  0  0  0  0  0  0  0  0  0
    3.4220    3.7131    0.0000 H   0  0  0  0  0  0  0  0  0  0  0  0
    2.3100    1.7869    0.0000 H   0  0  0  0  0  0  0  0  0  0  0  0
    1.4631    1.5600    0.0000 H   0  0  0  0  0  0  0  0  0  0  0  0
    1.6900    0.7131    0.0000 H   0  0  0  0  0  0  0  0  0  0  0  0
   11.2644   -0.4662    0.0000 H   0  0  0  0  0  0  0  0  0  0  0  0
   10.7239   -1.3942    0.0000 H   0  0  0  0  0  0  0  0  0  0  0  0
  1 14  2  0  0  0  0
  2 23  1  0  0  0  0
  2 28  1  0  0  0  0
  3 24  1  0  0  0  0
  3 29  1  0  0  0  0
  4 10  1  0  0  0  0
  4 14  1  0  0  0  0
  4 39  1  0  0  0  0
  5 14  1  0  0  0  0
  5 16  1  0  0  0  0
  5 40  1  0  0  0  0
  6 16  1  0  0  0  0
  6 20  2  0  0  0  0
  7 20  1  0  0  0  0
  7 27  2  0  0  0  0
  8 26  2  0  0  0  0
  8 27  1  0  0  0  0
  9 27  1  0  0  0  0
  9 52  1  0  0  0  0
  9 53  1  0  0  0  0
 10 11  1  0  0  0  0
 10 12  1  0  0  0  0
 10 13  1  0  0  0  0
 11 30  1  0  0  0  0
 11 31  1  0  0  0  0
 11 32  1  0  0  0  0
 12 33  1  0  0  0  0
 12 34  1  0  0  0  0
 12 35  1  0  0  0  0
 13 36  1  0  0  0  0
 13 37  1  0  0  0  0
 13 38  1  0  0  0  0
 15 16  2  0  0  0  0
 15 17  1  0  0  0  0
 15 18  1  0  0  0  0
 17 21  2  0  0  0  0
 17 22  1  0  0  0  0
 18 19  2  0  0  0  0
 18 41  1  0  0  0  0
 19 20  1  0  0  0  0
 19 26  1  0  0  0  0
 21 24  1  0  0  0  0
 21 42  1  0  0  0  0
 22 23  2  0  0  0  0
 22 43  1  0  0  0  0
 23 25  1  0  0  0  0
 24 25  2  0  0  0  0
 25 44  1  0  0  0  0
 26 45  1  0  0  0  0
 28 46  1  0  0  0  0
 28 47  1  0  0  0  0
 28 48  1  0  0  0  0
 29 49  1  0  0  0  0
 29 50  1  0  0  0  0
 29 51  1  0  0  0  0
M  END
> <PUBCHEM_COMPOUND_CID>
5328127

> <PUBCHEM_COMPOUND_CANONICALIZED>
1

> <PUBCHEM_CACTVS_COMPLEXITY>
545

> <PUBCHEM_CACTVS_HBOND_ACCEPTOR>
7

> <PUBCHEM_CACTVS_HBOND_DONOR>
3

> <PUBCHEM_CACTVS_ROTATABLE_BOND>
5

> <PUBCHEM_CACTVS_SUBSKEYS>
AAADceB7sAAAAAAAAAAAAAAAAAAAAAAAAAA8WIAAAAAAAACx/AAAHgAQAAAADIzBmwY/tt7IFACoAjJndACCiCkxIKAB2CAuTJiML+LE+duENCht1RfI6CeQ8P4OgAABCAAAAAAAAAIQAAAAAAAAAAAAAA==

> <PUBCHEM_IUPAC_OPENEYE_NAME>
1-[2-amino-6-(3,5-dimethoxyphenyl)pyrido[2,3-d]pyrimidin-7-yl]-3-tert-butyl-urea

> <PUBCHEM_IUPAC_CAS_NAME>
1-[2-amino-6-(3,5-dimethoxyphenyl)-7-pyrido[2,3-d]pyrimidinyl]-3-tert-butylurea

> <PUBCHEM_IUPAC_NAME_MARKUP>
1-[2-amino-6-(3,5-dimethoxyphenyl)pyrido[2,3-d]pyrimidin-7-yl]-3-<I>tert</I>-butylurea

> <PUBCHEM_IUPAC_NAME>
1-[2-amino-6-(3,5-dimethoxyphenyl)pyrido[2,3-d]pyrimidin-7-yl]-3-tert-butylurea

> <PUBCHEM_IUPAC_SYSTEMATIC_NAME>
1-[2-azanyl-6-(3,5-dimethoxyphenyl)pyrido[2,3-d]pyrimidin-7-yl]-3-tert-butyl-urea

> <PUBCHEM_IUPAC_TRADITIONAL_NAME>
1-[2-amino-6-(3,5-dimethoxyphenyl)pyrido[2,3-d]pyrimidin-7-yl]-3-tert-butyl-urea

> <PUBCHEM_IUPAC_INCHI>
InChI=1S/C20H24N6O3/c1-20(2,3)26-19(27)25-17-15(8-12-10-22-18(21)24-16(12)23-17)11-6-13(28-4)9-14(7-11)29-5/h6-10H,1-5H3,(H4,21,22,23,24,25,26,27)

> <PUBCHEM_IUPAC_INCHIKEY>
NHJSWORVNIOXIT-UHFFFAOYSA-N

> <PUBCHEM_XLOGP3_AA>
2.3

> <PUBCHEM_EXACT_MASS>
396.19098865

> <PUBCHEM_MOLECULAR_FORMULA>
C20H24N6O3

> <PUBCHEM_MOLECULAR_WEIGHT>
396.4

> <PUBCHEM_OPENEYE_CAN_SMILES>
CC(C)(C)NC(=O)NC1=C(C=C2C=NC(=NC2=N1)N)C3=CC(=CC(=C3)OC)OC

> <PUBCHEM_OPENEYE_ISO_SMILES>
CC(C)(C)NC(=O)NC1=C(C=C2C=NC(=NC2=N1)N)C3=CC(=CC(=C3)OC)OC

> <PUBCHEM_CACTVS_TPSA>
124

> <PUBCHEM_MONOISOTOPIC_WEIGHT>
396.19098865

> <PUBCHEM_TOTAL_CHARGE>
0

> <PUBCHEM_HEAVY_ATOM_COUNT>
29

> <PUBCHEM_ATOM_DEF_STEREO_COUNT>
0

> <PUBCHEM_ATOM_UDEF_STEREO_COUNT>
0

> <PUBCHEM_BOND_DEF_STEREO_COUNT>
0

> <PUBCHEM_BOND_UDEF_STEREO_COUNT>
0

> <PUBCHEM_ISOTOPIC_ATOM_COUNT>
0

> <PUBCHEM_COMPONENT_COUNT>
1

> <PUBCHEM_CACTVS_TAUTO_COUNT>
-1

> <PUBCHEM_COORDINATE_TYPE>
1
5
255

> <PUBCHEM_BONDANNOTATIONS>
15  16  8
15  18  8
17  21  8
17  22  8
18  19  8
19  20  8
19  26  8
21  24  8
22  23  8
23  25  8
24  25  8
6  16  8
6  20  8
7  20  8
7  27  8
8  26  8
8  27  8

$$$$
51038269
  -OEChem-11282412102D

 66 70  0     0  0  0  0  0  0999 V2000
    2.3660    1.3840    0.0000 F   0  0  0  0  0  0  0  0  0  0  0  0
    2.0000    2.7500    0.0000 F   0  0  0  0  0  0  0  0  0  0  0  0
    3.3660    3.1160    0.0000 F   0  0  0  0  0  0  0  0  0  0  0  0
    7.1962    0.7500    0.0000 O   0  0  0  0  0  0  0  0  0  0  0  0
    2.8660   -0.7500    0.0000 N   0  0  0  0  0  0  0  0  0  0  0  0
    2.8660   -2.7500    0.0000 N   0  0  0  0  0  0  0  0  0  0  0  0
    6.3301    2.2500    0.0000 N   0  0  0  0  0  0  0  0  0  0  0  0
   15.0706   -0.5547    0.0000 N   0  0  0  0  0  0  0  0  0  0  0  0
   13.2583   -0.7500    0.0000 N   0  0  0  0  0  0  0  0  0  0  0  0
   15.6542    0.2500    0.0000 N   0  0  0  0  0  0  0  0  0  0  0  0
    2.0000   -1.2500    0.0000 C   0  0  0  0  0  0  0  0  0  0  0  0
    3.7320   -1.2500    0.0000 C   0  0  0  0  0  0  0  0  0  0  0  0
    2.0000   -2.2500    0.0000 C   0  0  0  0  0  0  0  0  0  0  0  0
    3.7320   -2.2500    0.0000 C   0  0  0  0  0  0  0  0  0  0  0  0
    2.8660    0.2500    0.0000 C   0  0  0  0  0  0  0  0  0  0  0  0
    3.7320    0.7500    0.0000 C   0  0  0  0  0  0  0  0  0  0  0  0
    2.8660   -3.7500    0.0000 C   0  0  0  0  0  0  0  0  0  0  0  0
    3.7320    1.7500    0.0000 C   0  0  0  0  0  0  0  0  0  0  0  0
    4.5981    0.2500    0.0000 C   0  0  0  0  0  0  0  0  0  0  0  0
    4.5981    2.2500    0.0000 C   0  0  0  0  0  0  0  0  0  0  0  0
    5.4641    0.7500    0.0000 C   0  0  0  0  0  0  0  0  0  0  0  0
    5.4641    1.7500    0.0000 C   0  0  0  0  0  0  0  0  0  0  0  0
    2.8660    2.2500    0.0000 C   0  0  0  0  0  0  0  0  0  0  0  0
    7.1962    1.7500    0.0000 C   0  0  0  0  0  0  0  0  0  0  0  0
    8.0622    2.2500    0.0000 C   0  0  0  0  0  0  0  0  0  0  0  0
    8.9282    1.7500    0.0000 C   0  0  0  0  0  0  0  0  0  0  0  0
    8.0622    3.2500    0.0000 C   0  0  0  0  0  0  0  0  0  0  0  0
    9.7942    2.2500    0.0000 C   0  0  0  0  0  0  0  0  0  0  0  0
    9.7942    3.2500    0.0000 C   0  0  0  0  0  0  0  0  0  0  0  0
    8.9282    3.7500    0.0000 C   0  0  0  0  0  0  0  0  0  0  0  0
   10.6603    3.7500    0.0000 C   0  0  0  0  0  0  0  0  0  0  0  0
   10.6603    1.7500    0.0000 C   0  0  0  0  0  0  0  0  0  0  0  0
   14.1244    0.7500    0.0000 C   0  0  0  0  0  0  0  0  0  0  0  0
   12.3923    0.7500    0.0000 C   0  0  0  0  0  0  0  0  0  0  0  0
   14.1244   -0.2500    0.0000 C   0  0  0  0  0  0  0  0  0  0  0  0
   13.2583    1.2500    0.0000 C   0  0  0  0  0  0  0  0  0  0  0  0
   11.5263    1.2500    0.0000 C   0  0  0  0  0  0  0  0  0  0  0  0
   12.3923   -0.2500    0.0000 C   0  0  0  0  0  0  0  0  0  0  0  0
   15.0706    1.0547    0.0000 C   0  0  0  0  0  0  0  0  0  0  0  0
    1.7880   -0.6674    0.0000 H   0  0  0  0  0  0  0  0  0  0  0  0
    1.3894   -1.3577    0.0000 H   0  0  0  0  0  0  0  0  0  0  0  0
    4.3426   -1.3577    0.0000 H   0  0  0  0  0  0  0  0  0  0  0  0
    3.9441   -0.6674    0.0000 H   0  0  0  0  0  0  0  0  0  0  0  0
    1.3894   -2.1423    0.0000 H   0  0  0  0  0  0  0  0  0  0  0  0
    1.7880   -2.8326    0.0000 H   0  0  0  0  0  0  0  0  0  0  0  0
    3.9441   -2.8326    0.0000 H   0  0  0  0  0  0  0  0  0  0  0  0
    4.3426   -2.1423    0.0000 H   0  0  0  0  0  0  0  0  0  0  0  0
    2.6540    0.8326    0.0000 H   0  0  0  0  0  0  0  0  0  0  0  0
    2.2554    0.1423    0.0000 H   0  0  0  0  0  0  0  0  0  0  0  0
    2.2460   -3.7500    0.0000 H   0  0  0  0  0  0  0  0  0  0  0  0
    2.8660   -4.3700    0.0000 H   0  0  0  0  0  0  0  0  0  0  0  0
    3.4860   -3.7500    0.0000 H   0  0  0  0  0  0  0  0  0  0  0  0
    4.5981   -0.3700    0.0000 H   0  0  0  0  0  0  0  0  0  0  0  0
    4.5981    2.8700    0.0000 H   0  0  0  0  0  0  0  0  0  0  0  0
    6.0010    0.4400    0.0000 H   0  0  0  0  0  0  0  0  0  0  0  0
    6.3301    2.8700    0.0000 H   0  0  0  0  0  0  0  0  0  0  0  0
    8.9282    1.1300    0.0000 H   0  0  0  0  0  0  0  0  0  0  0  0
    7.5252    3.5600    0.0000 H   0  0  0  0  0  0  0  0  0  0  0  0
    8.9282    4.3700    0.0000 H   0  0  0  0  0  0  0  0  0  0  0  0
   10.9703    3.2131    0.0000 H   0  0  0  0  0  0  0  0  0  0  0  0
   11.1972    4.0600    0.0000 H   0  0  0  0  0  0  0  0  0  0  0  0
   10.3503    4.2869    0.0000 H   0  0  0  0  0  0  0  0  0  0  0  0
   13.2583    1.8700    0.0000 H   0  0  0  0  0  0  0  0  0  0  0  0
   11.8554   -0.5600    0.0000 H   0  0  0  0  0  0  0  0  0  0  0  0
   15.2632    1.6440    0.0000 H   0  0  0  0  0  0  0  0  0  0  0  0
   15.2632   -1.1440    0.0000 H   0  0  0  0  0  0  0  0  0  0  0  0
  1 23  1  0  0  0  0
  2 23  1  0  0  0  0
  3 23  1  0  0  0  0
  4 24  2  0  0  0  0
  5 11  1  0  0  0  0
  5 12  1  0  0  0  0
  5 15  1  0  0  0  0
  6 13  1  0  0  0  0
  6 14  1  0  0  0  0
  6 17  1  0  0  0  0
  7 22  1  0  0  0  0
  7 24  1  0  0  0  0
  7 56  1  0  0  0  0
  8 10  1  0  0  0  0
  8 35  1  0  0  0  0
  8 66  1  0  0  0  0
  9 35  1  0  0  0  0
  9 38  2  0  0  0  0
 10 39  2  0  0  0  0
 11 13  1  0  0  0  0
 11 40  1  0  0  0  0
 11 41  1  0  0  0  0
 12 14  1  0  0  0  0
 12 42  1  0  0  0  0
 12 43  1  0  0  0  0
 13 44  1  0  0  0  0
 13 45  1  0  0  0  0
 14 46  1  0  0  0  0
 14 47  1  0  0  0  0
 15 16  1  0  0  0  0
 15 48  1  0  0  0  0
 15 49  1  0  0  0  0
 16 18  2  0  0  0  0
 16 19  1  0  0  0  0
 17 50  1  0  0  0  0
 17 51  1  0  0  0  0
 17 52  1  0  0  0  0
 18 20  1  0  0  0  0
 18 23  1  0  0  0  0
 19 21  2  0  0  0  0
 19 53  1  0  0  0  0
 20 22  2  0  0  0  0
 20 54  1  0  0  0  0
 21 22  1  0  0  0  0
 21 55  1  0  0  0  0
 24 25  1  0  0  0  0
 25 26  2  0  0  0  0
 25 27  1  0  0  0  0
 26 28  1  0  0  0  0
 26 57  1  0  0  0  0
 27 30  2  0  0  0  0
 27 58  1  0  0  0  0
 28 29  2  0  0  0  0
 28 32  1  0  0  0  0
 29 30  1  0  0  0  0
 29 31  1  0  0  0  0
 30 59  1  0  0  0  0
 31 60  1  0  0  0  0
 31 61  1  0  0  0  0
 31 62  1  0  0  0  0
 32 37  3  0  0  0  0
 33 35  2  0  0  0  0
 33 36  1  0  0  0  0
 33 39  1  0  0  0  0
 34 36  2  0  0  0  0
 34 37  1  0  0  0  0
 34 38  1  0  0  0  0
 36 63  1  0  0  0  0
 38 64  1  0  0  0  0
 39 65  1  0  0  0  0
M  END
> <PUBCHEM_COMPOUND_CID>
51038269

> <PUBCHEM_COMPOUND_CANONICALIZED>
1

> <PUBCHEM_CACTVS_COMPLEXITY>
910

> <PUBCHEM_CACTVS_HBOND_ACCEPTOR>
8

> <PUBCHEM_CACTVS_HBOND_DONOR>
2

> <PUBCHEM_CACTVS_ROTATABLE_BOND>
6

> <PUBCHEM_CACTVS_SUBSKEYS>
AAADceB7oYAAAAAAAAAAAAAAAAAAAWAAAAA8eIEAAAAAAFgB/AAAHwAYAAAADAjBmxQ/8N/rEADqEjd3dAiShCu1gqAd+SEoZNiIaPLA3dGUpQhgnALIyacYiMCOyAACQAAQAACQAASAACAAAAAAAAAAAA==

> <PUBCHEM_IUPAC_OPENEYE_NAME>
4-methyl-N-[4-[(4-methylpiperazin-1-yl)methyl]-3-(trifluoromethyl)phenyl]-3-[2-(1H-pyrazolo[3,4-b]pyridin-5-yl)ethynyl]benzamide

> <PUBCHEM_IUPAC_CAS_NAME>
4-methyl-N-[4-[(4-methyl-1-piperazinyl)methyl]-3-(trifluoromethyl)phenyl]-3-[2-(1H-pyrazolo[3,4-b]pyridin-5-yl)ethynyl]benzamide

> <PUBCHEM_IUPAC_NAME_MARKUP>
4-methyl-<I>N</I>-[4-[(4-methylpiperazin-1-yl)methyl]-3-(trifluoromethyl)phenyl]-3-[2-(1<I>H</I>-pyrazolo[3,4-b]pyridin-5-yl)ethynyl]benzamide

> <PUBCHEM_IUPAC_NAME>
4-methyl-N-[4-[(4-methylpiperazin-1-yl)methyl]-3-(trifluoromethyl)phenyl]-3-[2-(1H-pyrazolo[3,4-b]pyridin-5-yl)ethynyl]benzamide

> <PUBCHEM_IUPAC_SYSTEMATIC_NAME>
4-methyl-N-[4-[(4-methylpiperazin-1-yl)methyl]-3-(trifluoromethyl)phenyl]-3-[2-(1H-pyrazolo[3,4-b]pyridin-5-yl)ethynyl]benzamide

> <PUBCHEM_IUPAC_TRADITIONAL_NAME>
4-methyl-N-[4-[(4-methylpiperazino)methyl]-3-(trifluoromethyl)phenyl]-3-[2-(1H-pyrazolo[3,4-b]pyridin-5-yl)ethynyl]benzamide

> <PUBCHEM_IUPAC_INCHI>
InChI=1S/C29H27F3N6O/c1-19-3-5-22(14-21(19)6-4-20-13-24-17-34-36-27(24)33-16-20)28(39)35-25-8-7-23(26(15-25)29(30,31)32)18-38-11-9-37(2)10-12-38/h3,5,7-8,13-17H,9-12,18H2,1-2H3,(H,35,39)(H,33,34,36)

> <PUBCHEM_IUPAC_INCHIKEY>
TZKBVRDEOITLRB-UHFFFAOYSA-N

> <PUBCHEM_XLOGP3_AA>
4.6

> <PUBCHEM_EXACT_MASS>
532.21984399

> <PUBCHEM_MOLECULAR_FORMULA>
C29H27F3N6O

> <PUBCHEM_MOLECULAR_WEIGHT>
532.6

> <PUBCHEM_OPENEYE_CAN_SMILES>
CC1=C(C=C(C=C1)C(=O)NC2=CC(=C(C=C2)CN3CCN(CC3)C)C(F)(F)F)C#CC4=CC5=C(NN=C5)N=C4

> <PUBCHEM_OPENEYE_ISO_SMILES>
CC1=C(C=C(C=C1)C(=O)NC2=CC(=C(C=C2)CN3CCN(CC3)C)C(F)(F)F)C#CC4=CC5=C(NN=C5)N=C4

> <PUBCHEM_CACTVS_TPSA>
77.2

> <PUBCHEM_MONOISOTOPIC_WEIGHT>
532.21984399

> <PUBCHEM_TOTAL_CHARGE>
0

> <PUBCHEM_HEAVY_ATOM_COUNT>
39

> <PUBCHEM_ATOM_DEF_STEREO_COUNT>
0

> <PUBCHEM_ATOM_UDEF_STEREO_COUNT>
0

> <PUBCHEM_BOND_DEF_STEREO_COUNT>
0

> <PUBCHEM_BOND_UDEF_STEREO_COUNT>
0

> <PUBCHEM_ISOTOPIC_ATOM_COUNT>
0

> <PUBCHEM_COMPONENT_COUNT>
1

> <PUBCHEM_CACTVS_TAUTO_COUNT>
15

> <PUBCHEM_COORDINATE_TYPE>
1
5
255

> <PUBCHEM_BONDANNOTATIONS>
10  39  8
16  18  8
16  19  8
18  20  8
19  21  8
20  22  8
21  22  8
25  26  8
25  27  8
26  28  8
27  30  8
28  29  8
29  30  8
33  35  8
33  36  8
33  39  8
34  36  8
34  38  8
8  10  8
8  35  8
9  35  8
9  38  8

$$$$
5329098
  -OEChem-11282412102D

 32 34  0     0  0  0  0  0  0999 V2000
    6.2619   -1.1736    0.0000 O   0  0  0  0  0  0  0  0  0  0  0  0
    6.7094    0.1175    0.0000 N   0  0  0  0  0  0  0  0  0  0  0  0
    4.6783   -1.9783    0.0000 N   0  0  0  0  0  0  0  0  0  0  0  0
    4.6783   -0.3688    0.0000 C   0  0  0  0  0  0  0  0  0  0  0  0
    5.9674    0.7879    0.0000 C   0  0  0  0  0  0  0  0  0  0  0  0
    3.7320   -0.6736    0.0000 C   0  0  0  0  0  0  0  0  0  0  0  0
    6.3758    1.7007    0.0000 C   0  0  0  0  0  0  0  0  0  0  0  0
    4.9889    0.5817    0.0000 C   0  0  0  0  0  0  0  0  0  0  0  0
    3.7320   -1.6736    0.0000 C   0  0  0  0  0  0  0  0  0  0  0  0
    7.5763    0.6160    0.0000 C   0  0  0  0  0  0  0  0  0  0  0  0
    5.2619   -1.1736    0.0000 C   0  0  0  0  0  0  0  0  0  0  0  0
    7.3701    1.5945    0.0000 C   0  0  0  0  0  0  0  0  0  0  0  0
    2.8660   -0.1736    0.0000 C   0  0  0  0  0  0  0  0  0  0  0  0
    2.8660   -2.1736    0.0000 C   0  0  0  0  0  0  0  0  0  0  0  0
    5.8772    2.5676    0.0000 C   0  0  0  0  0  0  0  0  0  0  0  0
    8.4892    0.2077    0.0000 C   0  0  0  0  0  0  0  0  0  0  0  0
    2.0000   -0.6736    0.0000 C   0  0  0  0  0  0  0  0  0  0  0  0
    2.0000   -1.6736    0.0000 C   0  0  0  0  0  0  0  0  0  0  0  0
    4.5749    1.0432    0.0000 H   0  0  0  0  0  0  0  0  0  0  0  0
    6.6436   -0.4990    0.0000 H   0  0  0  0  0  0  0  0  0  0  0  0
    7.7858    2.0545    0.0000 H   0  0  0  0  0  0  0  0  0  0  0  0
    4.8709   -2.5676    0.0000 H   0  0  0  0  0  0  0  0  0  0  0  0
    2.8660    0.4464    0.0000 H   0  0  0  0  0  0  0  0  0  0  0  0
    2.8660   -2.7936    0.0000 H   0  0  0  0  0  0  0  0  0  0  0  0
    6.4147    2.8767    0.0000 H   0  0  0  0  0  0  0  0  0  0  0  0
    5.5682    3.1051    0.0000 H   0  0  0  0  0  0  0  0  0  0  0  0
    5.3398    2.2586    0.0000 H   0  0  0  0  0  0  0  0  0  0  0  0
    8.2360   -0.3583    0.0000 H   0  0  0  0  0  0  0  0  0  0  0  0
    9.0551   -0.0455    0.0000 H   0  0  0  0  0  0  0  0  0  0  0  0
    8.7423    0.7736    0.0000 H   0  0  0  0  0  0  0  0  0  0  0  0
    1.4631   -0.3636    0.0000 H   0  0  0  0  0  0  0  0  0  0  0  0
    1.4631   -1.9836    0.0000 H   0  0  0  0  0  0  0  0  0  0  0  0
  1 11  2  0  0  0  0
  2  5  1  0  0  0  0
  2 10  1  0  0  0  0
  2 20  1  0  0  0  0
  3  9  1  0  0  0  0
  3 11  1  0  0  0  0
  3 22  1  0  0  0  0
  4  6  1  0  0  0  0
  4  8  2  0  0  0  0
  4 11  1  0  0  0  0
  5  7  2  0  0  0  0
  5  8  1  0  0  0  0
  6  9  1  0  0  0  0
  6 13  2  0  0  0  0
  7 12  1  0  0  0  0
  7 15  1  0  0  0  0
  8 19  1  0  0  0  0
  9 14  2  0  0  0  0
 10 12  2  0  0  0  0
 10 16  1  0  0  0  0
 12 21  1  0  0  0  0
 13 17  1  0  0  0  0
 13 23  1  0  0  0  0
 14 18  1  0  0  0  0
 14 24  1  0  0  0  0
 15 25  1  0  0  0  0
 15 26  1  0  0  0  0
 15 27  1  0  0  0  0
 16 28  1  0  0  0  0
 16 29  1  0  0  0  0
 16 30  1  0  0  0  0
 17 18  2  0  0  0  0
 17 31  1  0  0  0  0
 18 32  1  0  0  0  0
M  END
> <PUBCHEM_COMPOUND_CID>
5329098

> <PUBCHEM_COMPOUND_CANONICALIZED>
1

> <PUBCHEM_CACTVS_COMPLEXITY>
377

> <PUBCHEM_CACTVS_HBOND_ACCEPTOR>
1

> <PUBCHEM_CACTVS_HBOND_DONOR>
2

> <PUBCHEM_CACTVS_ROTATABLE_BOND>
1

> <PUBCHEM_CACTVS_SUBSKEYS>
AAADccBzIAAAAAAAAAAAAAAAAAAAAWLAAAAwAAAAAAAAAFgBwAAAHgAQAAAADAiBngAywJLJkACoAyVyVACCgCAhAiAImSEwZNgIIPLAlZGEIAhglADIyYcciICOAAAAAAACAAAAAAAAAAQAAAAAAAAAAA==

> <PUBCHEM_IUPAC_OPENEYE_NAME>
(3Z)-3-[(3,5-dimethyl-1H-pyrrol-2-yl)methylene]indolin-2-one

> <PUBCHEM_IUPAC_CAS_NAME>
(3Z)-3-[(3,5-dimethyl-1H-pyrrol-2-yl)methylidene]-1H-indol-2-one

> <PUBCHEM_IUPAC_NAME_MARKUP>
(3<I>Z</I>)-3-[(3,5-dimethyl-1<I>H</I>-pyrrol-2-yl)methylidene]-1<I>H</I>-indol-2-one

> <PUBCHEM_IUPAC_NAME>
(3Z)-3-[(3,5-dimethyl-1H-pyrrol-2-yl)methylidene]-1H-indol-2-one

> <PUBCHEM_IUPAC_SYSTEMATIC_NAME>
(3Z)-3-[(3,5-dimethyl-1H-pyrrol-2-yl)methylidene]-1H-indol-2-one

> <PUBCHEM_IUPAC_TRADITIONAL_NAME>
(3Z)-3-[(3,5-dimethyl-1H-pyrrol-2-yl)methylene]oxindole

> <PUBCHEM_IUPAC_INCHI>
InChI=1S/C15H14N2O/c1-9-7-10(2)16-14(9)8-12-11-5-3-4-6-13(11)17-15(12)18/h3-8,16H,1-2H3,(H,17,18)/b12-8-

> <PUBCHEM_IUPAC_INCHIKEY>
WUWDLXZGHZSWQZ-WQLSENKSSA-N

> <PUBCHEM_XLOGP3_AA>
2.5

> <PUBCHEM_EXACT_MASS>
238.110613074

> <PUBCHEM_MOLECULAR_FORMULA>
C15H14N2O

> <PUBCHEM_MOLECULAR_WEIGHT>
238.28

> <PUBCHEM_OPENEYE_CAN_SMILES>
CC1=CC(=C(N1)C=C2C3=CC=CC=C3NC2=O)C

> <PUBCHEM_OPENEYE_ISO_SMILES>
CC1=CC(=C(N1)/C=C\2/C3=CC=CC=C3NC2=O)C

> <PUBCHEM_CACTVS_TPSA>
44.9

> <PUBCHEM_MONOISOTOPIC_WEIGHT>
238.110613074

> <PUBCHEM_TOTAL_CHARGE>
0

> <PUBCHEM_HEAVY_ATOM_COUNT>
18

> <PUBCHEM_ATOM_DEF_STEREO_COUNT>
0

> <PUBCHEM_ATOM_UDEF_STEREO_COUNT>
0

> <PUBCHEM_BOND_DEF_STEREO_COUNT>
1

> <PUBCHEM_BOND_UDEF_STEREO_COUNT>
0

> <PUBCHEM_ISOTOPIC_ATOM_COUNT>
0

> <PUBCHEM_COMPONENT_COUNT>
1

> <PUBCHEM_CACTVS_TAUTO_COUNT>
-1

> <PUBCHEM_COORDINATE_TYPE>
1
5
255

> <PUBCHEM_BONDANNOTATIONS>
10  12  8
13  17  8
14  18  8
17  18  8
2  10  8
2  5  8
5  7  8
6  13  8
6  9  8
7  12  8
9  14  8

$$$$
135390910
  -OEChem-11282412102D

 69 74  0     1  0  0  0  0  0999 V2000
    4.2086   -1.9840    0.0000 Cl  0  0  0  0  0  0  0  0  0  0  0  0
    7.7189    3.1810    0.0000 N   0  0  0  0  0  0  0  0  0  0  0  0
    8.3403    5.0821    0.0000 N   0  0  0  0  0  0  0  0  0  0  0  0
    8.1226   -1.1591    0.0000 N   0  0  0  0  0  0  0  0  0  0  0  0
    6.8335   -2.3159    0.0000 N   0  0  0  0  0  0  0  0  0  0  0  0
    6.4763   -0.6210    0.0000 N   0  0  0  0  0  0  0  0  0  0  0  0
    5.5443   -5.0821    0.0000 N   0  0  0  0  0  0  0  0  0  0  0  0
   10.7010    1.1544    0.0000 C   0  0  0  0  0  0  0  0  0  0  0  0
   11.6515    0.8437    0.0000 C   0  0  0  0  0  0  0  0  0  0  0  0
   11.4453    1.8222    0.0000 C   0  0  0  0  0  0  0  0  0  0  0  0
    9.7225    0.9481    0.0000 C   0  0  0  0  0  0  0  0  0  0  0  0
    8.6974    3.3872    0.0000 C   0  0  0  0  0  0  0  0  0  0  0  0
    7.0511    3.9253    0.0000 C   0  0  0  0  0  0  0  0  0  0  0  0
    9.0081    4.3378    0.0000 C   0  0  1  0  0  0  0  0  0  0  0  0
    7.3618    4.8758    0.0000 C   0  0  2  0  0  0  0  0  0  0  0  0
    9.0546    1.6924    0.0000 C   0  0  0  0  0  0  0  0  0  0  0  0
    7.4083    2.2305    0.0000 C   0  0  0  0  0  0  0  0  0  0  0  0
    8.0761    1.4862    0.0000 C   0  0  0  0  0  0  0  0  0  0  0  0
    9.4118   -0.0024    0.0000 C   0  0  0  0  0  0  0  0  0  0  0  0
    8.4333   -0.2086    0.0000 C   0  0  0  0  0  0  0  0  0  0  0  0
    7.7654    0.5357    0.0000 C   0  0  0  0  0  0  0  0  0  0  0  0
    9.9866    4.5440    0.0000 C   0  0  0  0  0  0  0  0  0  0  0  0
    6.6939    5.6202    0.0000 C   0  0  0  0  0  0  0  0  0  0  0  0
    7.1441   -1.3654    0.0000 C   0  0  0  0  0  0  0  0  0  0  0  0
    5.8550   -2.5221    0.0000 C   0  0  0  0  0  0  0  0  0  0  0  0
    5.5443   -3.4726    0.0000 C   0  0  0  0  0  0  0  0  0  0  0  0
    4.5981   -3.7773    0.0000 C   0  0  0  0  0  0  0  0  0  0  0  0
    4.5981   -4.7773    0.0000 C   0  0  0  0  0  0  0  0  0  0  0  0
    5.1871   -1.7778    0.0000 C   0  0  0  0  0  0  0  0  0  0  0  0
    5.4978   -0.8273    0.0000 C   0  0  0  0  0  0  0  0  0  0  0  0
    6.1279   -4.2773    0.0000 C   0  0  0  0  0  0  0  0  0  0  0  0
    3.7320   -3.2773    0.0000 C   0  0  0  0  0  0  0  0  0  0  0  0
    3.7320   -5.2773    0.0000 C   0  0  0  0  0  0  0  0  0  0  0  0
    2.8660   -4.7773    0.0000 C   0  0  0  0  0  0  0  0  0  0  0  0
    2.8660   -3.7773    0.0000 C   0  0  0  0  0  0  0  0  0  0  0  0
    2.0000   -5.2773    0.0000 C   0  0  0  0  0  0  0  0  0  0  0  0
   10.4205    1.7073    0.0000 H   0  0  0  0  0  0  0  0  0  0  0  0
   11.5641    0.2299    0.0000 H   0  0  0  0  0  0  0  0  0  0  0  0
   12.2711    0.8642    0.0000 H   0  0  0  0  0  0  0  0  0  0  0  0
   12.0205    2.0535    0.0000 H   0  0  0  0  0  0  0  0  0  0  0  0
   11.1176    2.3486    0.0000 H   0  0  0  0  0  0  0  0  0  0  0  0
    8.7180    2.7676    0.0000 H   0  0  0  0  0  0  0  0  0  0  0  0
    9.3112    3.2999    0.0000 H   0  0  0  0  0  0  0  0  0  0  0  0
    6.5042    4.2174    0.0000 H   0  0  0  0  0  0  0  0  0  0  0  0
    6.6685    3.4374    0.0000 H   0  0  0  0  0  0  0  0  0  0  0  0
    9.2007    4.9271    0.0000 H   0  0  0  0  0  0  0  0  0  0  0  0
    7.5544    5.4652    0.0000 H   0  0  0  0  0  0  0  0  0  0  0  0
    9.2472    2.2818    0.0000 H   0  0  0  0  0  0  0  0  0  0  0  0
    6.8614    2.5225    0.0000 H   0  0  0  0  0  0  0  0  0  0  0  0
    7.0257    1.7426    0.0000 H   0  0  0  0  0  0  0  0  0  0  0  0
    9.8259   -0.4639    0.0000 H   0  0  0  0  0  0  0  0  0  0  0  0
    8.5329    5.6714    0.0000 H   0  0  0  0  0  0  0  0  0  0  0  0
    7.1588    0.4078    0.0000 H   0  0  0  0  0  0  0  0  0  0  0  0
   10.1145    3.9373    0.0000 H   0  0  0  0  0  0  0  0  0  0  0  0
   10.5933    4.6718    0.0000 H   0  0  0  0  0  0  0  0  0  0  0  0
    9.8588    5.1507    0.0000 H   0  0  0  0  0  0  0  0  0  0  0  0
    7.1554    6.0342    0.0000 H   0  0  0  0  0  0  0  0  0  0  0  0
    6.2798    6.0816    0.0000 H   0  0  0  0  0  0  0  0  0  0  0  0
    6.2324    5.2061    0.0000 H   0  0  0  0  0  0  0  0  0  0  0  0
    8.5367   -1.6206    0.0000 H   0  0  0  0  0  0  0  0  0  0  0  0
    5.0837   -0.3658    0.0000 H   0  0  0  0  0  0  0  0  0  0  0  0
    6.7479   -4.2773    0.0000 H   0  0  0  0  0  0  0  0  0  0  0  0
    5.7369   -5.6714    0.0000 H   0  0  0  0  0  0  0  0  0  0  0  0
    3.7320   -2.6573    0.0000 H   0  0  0  0  0  0  0  0  0  0  0  0
    3.7320   -5.8973    0.0000 H   0  0  0  0  0  0  0  0  0  0  0  0
    2.3291   -3.4673    0.0000 H   0  0  0  0  0  0  0  0  0  0  0  0
    1.6900   -4.7404    0.0000 H   0  0  0  0  0  0  0  0  0  0  0  0
    1.4631   -5.5873    0.0000 H   0  0  0  0  0  0  0  0  0  0  0  0
    2.3100   -5.8143    0.0000 H   0  0  0  0  0  0  0  0  0  0  0  0
  1 29  1  0  0  0  0
  2 12  1  0  0  0  0
  2 13  1  0  0  0  0
  2 17  1  0  0  0  0
  3 14  1  0  0  0  0
  3 15  1  0  0  0  0
  3 52  1  0  0  0  0
  4 20  1  0  0  0  0
  4 24  1  0  0  0  0
  4 60  1  0  0  0  0
  5 24  1  0  0  0  0
  5 25  2  0  0  0  0
  6 24  2  0  0  0  0
  6 30  1  0  0  0  0
  7 28  1  0  0  0  0
  7 31  1  0  0  0  0
  7 63  1  0  0  0  0
  8  9  1  0  0  0  0
  8 10  1  0  0  0  0
  8 11  1  0  0  0  0
  8 37  1  0  0  0  0
  9 10  1  0  0  0  0
  9 38  1  0  0  0  0
  9 39  1  0  0  0  0
 10 40  1  0  0  0  0
 10 41  1  0  0  0  0
 11 16  1  0  0  0  0
 11 19  2  0  0  0  0
 12 14  1  0  0  0  0
 12 42  1  0  0  0  0
 12 43  1  0  0  0  0
 13 15  1  0  0  0  0
 13 44  1  0  0  0  0
 13 45  1  0  0  0  0
 14 22  1  6  0  0  0
 14 46  1  0  0  0  0
 15 23  1  6  0  0  0
 15 47  1  0  0  0  0
 16 18  2  0  0  0  0
 16 48  1  0  0  0  0
 17 18  1  0  0  0  0
 17 49  1  0  0  0  0
 17 50  1  0  0  0  0
 18 21  1  0  0  0  0
 19 20  1  0  0  0  0
 19 51  1  0  0  0  0
 20 21  2  0  0  0  0
 21 53  1  0  0  0  0
 22 54  1  0  0  0  0
 22 55  1  0  0  0  0
 22 56  1  0  0  0  0
 23 57  1  0  0  0  0
 23 58  1  0  0  0  0
 23 59  1  0  0  0  0
 25 26  1  0  0  0  0
 25 29  1  0  0  0  0
 26 27  1  0  0  0  0
 26 31  2  0  0  0  0
 27 28  2  0  0  0  0
 27 32  1  0  0  0  0
 28 33  1  0  0  0  0
 29 30  2  0  0  0  0
 30 61  1  0  0  0  0
 31 62  1  0  0  0  0
 32 35  2  0  0  0  0
 32 64  1  0  0  0  0
 33 34  2  0  0  0  0
 33 65  1  0  0  0  0
 34 35  1  0  0  0  0
 34 36  1  0  0  0  0
 35 66  1  0  0  0  0
 36 67  1  0  0  0  0
 36 68  1  0  0  0  0
 36 69  1  0  0  0  0
M  END
> <PUBCHEM_COMPOUND_CID>
135390910

> <PUBCHEM_COMPOUND_CANONICALIZED>
1

> <PUBCHEM_CACTVS_COMPLEXITY>
725

> <PUBCHEM_CACTVS_HBOND_ACCEPTOR>
5

> <PUBCHEM_CACTVS_HBOND_DONOR>
3

> <PUBCHEM_CACTVS_ROTATABLE_BOND>
6

> <PUBCHEM_CACTVS_SUBSKEYS>
AAADcfB7gAAEAAAAAAAAAAAAGAAAAWAAAAA8eIEAAAAAAFgB/AAAHAIQAAAADSrBHiQ/0PfJkACgAzRnZACCgCkxB6AJ2aA4ZpiIaOLB2dHUJAhokALIyCcQgMAOwAACQAACAACAAASAAAQAAAAAAAAAAA==

> <PUBCHEM_IUPAC_OPENEYE_NAME>
5-chloro-N-[3-cyclopropyl-5-[[(3S,5R)-3,5-dimethylpiperazin-1-yl]methyl]phenyl]-4-(6-methyl-1H-indol-3-yl)pyrimidin-2-amine

> <PUBCHEM_IUPAC_CAS_NAME>
5-chloro-N-[3-cyclopropyl-5-[[(3S,5R)-3,5-dimethyl-1-piperazinyl]methyl]phenyl]-4-(6-methyl-1H-indol-3-yl)-2-pyrimidinamine

> <PUBCHEM_IUPAC_NAME_MARKUP>
5-chloro-<I>N</I>-[3-cyclopropyl-5-[[(3<I>S</I>,5<I>R</I>)-3,5-dimethylpiperazin-1-yl]methyl]phenyl]-4-(6-methyl-1<I>H</I>-indol-3-yl)pyrimidin-2-amine

> <PUBCHEM_IUPAC_NAME>
5-chloro-N-[3-cyclopropyl-5-[[(3S,5R)-3,5-dimethylpiperazin-1-yl]methyl]phenyl]-4-(6-methyl-1H-indol-3-yl)pyrimidin-2-amine

> <PUBCHEM_IUPAC_SYSTEMATIC_NAME>
5-chloranyl-N-[3-cyclopropyl-5-[[(3S,5R)-3,5-dimethylpiperazin-1-yl]methyl]phenyl]-4-(6-methyl-1H-indol-3-yl)pyrimidin-2-amine

> <PUBCHEM_IUPAC_TRADITIONAL_NAME>
[5-chloro-4-(6-methyl-1H-indol-3-yl)pyrimidin-2-yl]-[3-cyclopropyl-5-[[(3S,5R)-3,5-dimethylpiperazino]methyl]phenyl]amine

> <PUBCHEM_IUPAC_INCHI>
InChI=1S/C29H33ClN6/c1-17-4-7-24-25(12-31-27(24)8-17)28-26(30)13-32-29(35-28)34-23-10-20(9-22(11-23)21-5-6-21)16-36-14-18(2)33-19(3)15-36/h4,7-13,18-19,21,31,33H,5-6,14-16H2,1-3H3,(H,32,34,35)/t18-,19+

> <PUBCHEM_IUPAC_INCHIKEY>
FZLSDZZNPXXBBB-KDURUIRLSA-N

> <PUBCHEM_XLOGP3_AA>
5.8

> <PUBCHEM_EXACT_MASS>
500.2455228

> <PUBCHEM_MOLECULAR_FORMULA>
C29H33ClN6

> <PUBCHEM_MOLECULAR_WEIGHT>
501.1

> <PUBCHEM_OPENEYE_CAN_SMILES>
CC1CN(CC(N1)C)CC2=CC(=CC(=C2)NC3=NC=C(C(=N3)C4=CNC5=C4C=CC(=C5)C)Cl)C6CC6

> <PUBCHEM_OPENEYE_ISO_SMILES>
C[C@@H]1CN(C[C@@H](N1)C)CC2=CC(=CC(=C2)NC3=NC=C(C(=N3)C4=CNC5=C4C=CC(=C5)C)Cl)C6CC6

> <PUBCHEM_CACTVS_TPSA>
68.9

> <PUBCHEM_MONOISOTOPIC_WEIGHT>
500.2455228

> <PUBCHEM_TOTAL_CHARGE>
0

> <PUBCHEM_HEAVY_ATOM_COUNT>
36

> <PUBCHEM_ATOM_DEF_STEREO_COUNT>
2

> <PUBCHEM_ATOM_UDEF_STEREO_COUNT>
0

> <PUBCHEM_BOND_DEF_STEREO_COUNT>
0

> <PUBCHEM_BOND_UDEF_STEREO_COUNT>
0

> <PUBCHEM_ISOTOPIC_ATOM_COUNT>
0

> <PUBCHEM_COMPONENT_COUNT>
1

> <PUBCHEM_CACTVS_TAUTO_COUNT>
-1

> <PUBCHEM_COORDINATE_TYPE>
1
5
255

> <PUBCHEM_BONDANNOTATIONS>
11  16  8
11  19  8
14  22  6
15  23  6
16  18  8
18  21  8
19  20  8
20  21  8
25  29  8
26  27  8
26  31  8
27  28  8
27  32  8
28  33  8
29  30  8
32  35  8
33  34  8
34  35  8
5  24  8
5  25  8
6  24  8
6  30  8
7  28  8
7  31  8

$$$$
49806720
  -OEChem-11282412102D

 70 75  0     0  0  0  0  0  0999 V2000
   16.5021    1.4762    0.0000 O   0  0  0  0  0  0  0  0  0  0  0  0
    7.3235   -1.3674    0.0000 O   0  0  0  0  0  0  0  0  0  0  0  0
   11.6154    0.4179    0.0000 N   0  0  0  0  0  0  0  0  0  0  0  0
   14.5474    1.0529    0.0000 N   0  0  0  0  0  0  0  0  0  0  0  0
    6.4667    1.8601    0.0000 N   0  0  0  0  0  0  0  0  0  0  0  0
    2.0000    1.1683    0.0000 N   0  0  0  0  0  0  0  0  0  0  0  0
   13.5700    0.8412    0.0000 C   0  0  0  0  0  0  0  0  0  0  0  0
   12.8980    1.5818    0.0000 C   0  0  0  0  0  0  0  0  0  0  0  0
   13.2647   -0.1110    0.0000 C   0  0  0  0  0  0  0  0  0  0  0  0
   11.9207    1.3701    0.0000 C   0  0  0  0  0  0  0  0  0  0  0  0
   12.2874   -0.3227    0.0000 C   0  0  0  0  0  0  0  0  0  0  0  0
    8.2506    1.4857    0.0000 C   0  0  0  0  0  0  0  0  0  0  0  0
   10.6380    0.2062    0.0000 C   0  0  0  0  0  0  0  0  0  0  0  0
    8.9197    0.7426    0.0000 C   0  0  0  0  0  0  0  0  0  0  0  0
    7.2724    1.2778    0.0000 C   0  0  0  0  0  0  0  0  0  0  0  0
   14.8527    2.0051    0.0000 C   0  0  0  0  0  0  0  0  0  0  0  0
   15.2194    0.3123    0.0000 C   0  0  0  0  0  0  0  0  0  0  0  0
    9.9351    0.9749    0.0000 C   0  0  0  0  0  0  0  0  0  0  0  0
    8.6107   -0.2084    0.0000 C   0  0  0  0  0  0  0  0  0  0  0  0
   10.3161   -0.7845    0.0000 C   0  0  0  0  0  0  0  0  0  0  0  0
    6.9634    0.3268    0.0000 C   0  0  0  0  0  0  0  0  0  0  0  0
    8.9937    2.1549    0.0000 C   0  0  0  0  0  0  0  0  0  0  0  0
    8.0426    2.4639    0.0000 C   0  0  0  0  0  0  0  0  0  0  0  0
    9.2956   -0.9932    0.0000 C   0  0  0  0  0  0  0  0  0  0  0  0
    7.6325   -0.4164    0.0000 C   0  0  0  0  0  0  0  0  0  0  0  0
   15.8301    2.2168    0.0000 C   0  0  0  0  0  0  0  0  0  0  0  0
   16.1967    0.5240    0.0000 C   0  0  0  0  0  0  0  0  0  0  0  0
    5.9693    0.3294    0.0000 C   0  0  0  0  0  0  0  0  0  0  0  0
   10.9824   -1.5302    0.0000 C   0  0  0  0  0  0  0  0  0  0  0  0
    5.6629    1.2751    0.0000 C   0  0  0  0  0  0  0  0  0  0  0  0
    5.2877   -0.4501    0.0000 C   0  0  0  0  0  0  0  0  0  0  0  0
    4.6537    1.5068    0.0000 C   0  0  0  0  0  0  0  0  0  0  0  0
   10.6697   -2.4801    0.0000 C   0  0  0  0  0  0  0  0  0  0  0  0
    4.2734   -0.2418    0.0000 C   0  0  0  0  0  0  0  0  0  0  0  0
    3.9543    0.7433    0.0000 C   0  0  0  0  0  0  0  0  0  0  0  0
    2.9772    0.9558    0.0000 C   0  0  0  0  0  0  0  0  0  0  0  0
   13.7594    1.4316    0.0000 H   0  0  0  0  0  0  0  0  0  0  0  0
   13.4226    1.9124    0.0000 H   0  0  0  0  0  0  0  0  0  0  0  0
   12.6636    2.1557    0.0000 H   0  0  0  0  0  0  0  0  0  0  0  0
   13.2887   -0.7306    0.0000 H   0  0  0  0  0  0  0  0  0  0  0  0
   13.8790   -0.1949    0.0000 H   0  0  0  0  0  0  0  0  0  0  0  0
   11.8967    1.9896    0.0000 H   0  0  0  0  0  0  0  0  0  0  0  0
   11.3064    1.4540    0.0000 H   0  0  0  0  0  0  0  0  0  0  0  0
   11.7628   -0.6533    0.0000 H   0  0  0  0  0  0  0  0  0  0  0  0
   12.5218   -0.8967    0.0000 H   0  0  0  0  0  0  0  0  0  0  0  0
   14.8287    2.6247    0.0000 H   0  0  0  0  0  0  0  0  0  0  0  0
   14.2384    2.0890    0.0000 H   0  0  0  0  0  0  0  0  0  0  0  0
   14.6948   -0.0182    0.0000 H   0  0  0  0  0  0  0  0  0  0  0  0
   15.4538   -0.2616    0.0000 H   0  0  0  0  0  0  0  0  0  0  0  0
   10.1198    1.5667    0.0000 H   0  0  0  0  0  0  0  0  0  0  0  0
    9.4086    1.6941    0.0000 H   0  0  0  0  0  0  0  0  0  0  0  0
    9.4544    2.5697    0.0000 H   0  0  0  0  0  0  0  0  0  0  0  0
    8.5788    2.6156    0.0000 H   0  0  0  0  0  0  0  0  0  0  0  0
    8.6491    2.5928    0.0000 H   0  0  0  0  0  0  0  0  0  0  0  0
    7.9137    3.0704    0.0000 H   0  0  0  0  0  0  0  0  0  0  0  0
    7.4362    2.3350    0.0000 H   0  0  0  0  0  0  0  0  0  0  0  0
    9.0972   -1.5806    0.0000 H   0  0  0  0  0  0  0  0  0  0  0  0
   16.3546    2.5474    0.0000 H   0  0  0  0  0  0  0  0  0  0  0  0
   15.5956    2.7908    0.0000 H   0  0  0  0  0  0  0  0  0  0  0  0
   16.2207   -0.0955    0.0000 H   0  0  0  0  0  0  0  0  0  0  0  0
   16.8110    0.4401    0.0000 H   0  0  0  0  0  0  0  0  0  0  0  0
    6.4656    2.4801    0.0000 H   0  0  0  0  0  0  0  0  0  0  0  0
   11.5287   -1.8234    0.0000 H   0  0  0  0  0  0  0  0  0  0  0  0
   11.3660   -1.0431    0.0000 H   0  0  0  0  0  0  0  0  0  0  0  0
    5.4856   -1.0377    0.0000 H   0  0  0  0  0  0  0  0  0  0  0  0
    4.4695    2.0988    0.0000 H   0  0  0  0  0  0  0  0  0  0  0  0
   10.0808   -2.2862    0.0000 H   0  0  0  0  0  0  0  0  0  0  0  0
   10.4759   -3.0690    0.0000 H   0  0  0  0  0  0  0  0  0  0  0  0
   11.2586   -2.6739    0.0000 H   0  0  0  0  0  0  0  0  0  0  0  0
    3.8600   -0.7038    0.0000 H   0  0  0  0  0  0  0  0  0  0  0  0
  1 26  1  0  0  0  0
  1 27  1  0  0  0  0
  2 25  2  0  0  0  0
  3 10  1  0  0  0  0
  3 11  1  0  0  0  0
  3 13  1  0  0  0  0
  4  7  1  0  0  0  0
  4 16  1  0  0  0  0
  4 17  1  0  0  0  0
  5 15  1  0  0  0  0
  5 30  1  0  0  0  0
  5 62  1  0  0  0  0
  6 36  3  0  0  0  0
  7  8  1  0  0  0  0
  7  9  1  0  0  0  0
  7 37  1  0  0  0  0
  8 10  1  0  0  0  0
  8 38  1  0  0  0  0
  8 39  1  0  0  0  0
  9 11  1  0  0  0  0
  9 40  1  0  0  0  0
  9 41  1  0  0  0  0
 10 42  1  0  0  0  0
 10 43  1  0  0  0  0
 11 44  1  0  0  0  0
 11 45  1  0  0  0  0
 12 14  1  0  0  0  0
 12 15  1  0  0  0  0
 12 22  1  0  0  0  0
 12 23  1  0  0  0  0
 13 18  2  0  0  0  0
 13 20  1  0  0  0  0
 14 18  1  0  0  0  0
 14 19  2  0  0  0  0
 15 21  2  0  0  0  0
 16 26  1  0  0  0  0
 16 46  1  0  0  0  0
 16 47  1  0  0  0  0
 17 27  1  0  0  0  0
 17 48  1  0  0  0  0
 17 49  1  0  0  0  0
 18 50  1  0  0  0  0
 19 24  1  0  0  0  0
 19 25  1  0  0  0  0
 20 24  2  0  0  0  0
 20 29  1  0  0  0  0
 21 25  1  0  0  0  0
 21 28  1  0  0  0  0
 22 51  1  0  0  0  0
 22 52  1  0  0  0  0
 22 53  1  0  0  0  0
 23 54  1  0  0  0  0
 23 55  1  0  0  0  0
 23 56  1  0  0  0  0
 24 57  1  0  0  0  0
 26 58  1  0  0  0  0
 26 59  1  0  0  0  0
 27 60  1  0  0  0  0
 27 61  1  0  0  0  0
 28 30  2  0  0  0  0
 28 31  1  0  0  0  0
 29 33  1  0  0  0  0
 29 63  1  0  0  0  0
 29 64  1  0  0  0  0
 30 32  1  0  0  0  0
 31 34  2  0  0  0  0
 31 65  1  0  0  0  0
 32 35  2  0  0  0  0
 32 66  1  0  0  0  0
 33 67  1  0  0  0  0
 33 68  1  0  0  0  0
 33 69  1  0  0  0  0
 34 35  1  0  0  0  0
 34 70  1  0  0  0  0
 35 36  1  0  0  0  0
M  END
> <PUBCHEM_COMPOUND_CID>
49806720

> <PUBCHEM_COMPOUND_CANONICALIZED>
1

> <PUBCHEM_CACTVS_COMPLEXITY>
867

> <PUBCHEM_CACTVS_HBOND_ACCEPTOR>
5

> <PUBCHEM_CACTVS_HBOND_DONOR>
1

> <PUBCHEM_CACTVS_ROTATABLE_BOND>
3

> <PUBCHEM_CACTVS_SUBSKEYS>
AAADcfB7sAAAAAAAAAAAAAAAAAAAAWAAAAA8eMECAAAAAFjB9AAAHgAQAAAADizhngYywPPJlAC4B6RyRACigCAlAiAImSE4ZNgKoPrA1ZGHIYhgkADYyc8cicCfyAACQAASAACQAASAACQAAAAAAAAAAA==

> <PUBCHEM_IUPAC_OPENEYE_NAME>
9-ethyl-6,6-dimethyl-8-(4-morpholino-1-piperidyl)-11-oxo-5H-benzo[b]carbazole-3-carbonitrile

> <PUBCHEM_IUPAC_CAS_NAME>
9-ethyl-6,6-dimethyl-8-[4-(4-morpholinyl)-1-piperidinyl]-11-oxo-5H-benzo[b]carbazole-3-carbonitrile

> <PUBCHEM_IUPAC_NAME_MARKUP>
9-ethyl-6,6-dimethyl-8-(4-morpholin-4-ylpiperidin-1-yl)-11-oxo-5<I>H</I>-benzo[b]carbazole-3-carbonitrile

> <PUBCHEM_IUPAC_NAME>
9-ethyl-6,6-dimethyl-8-(4-morpholin-4-ylpiperidin-1-yl)-11-oxo-5H-benzo[b]carbazole-3-carbonitrile

> <PUBCHEM_IUPAC_SYSTEMATIC_NAME>
9-ethyl-6,6-dimethyl-8-(4-morpholin-4-ylpiperidin-1-yl)-11-oxidanylidene-5H-benzo[b]carbazole-3-carbonitrile

> <PUBCHEM_IUPAC_TRADITIONAL_NAME>
9-ethyl-11-keto-6,6-dimethyl-8-(4-morpholinopiperidino)-5H-benzo[b]carbazole-3-carbonitrile

> <PUBCHEM_IUPAC_INCHI>
InChI=1S/C30H34N4O2/c1-4-20-16-23-24(17-26(20)34-9-7-21(8-10-34)33-11-13-36-14-12-33)30(2,3)29-27(28(23)35)22-6-5-19(18-31)15-25(22)32-29/h5-6,15-17,21,32H,4,7-14H2,1-3H3

> <PUBCHEM_IUPAC_INCHIKEY>
KDGFLJKFZUIJMX-UHFFFAOYSA-N

> <PUBCHEM_XLOGP3_AA>
5.2

> <PUBCHEM_EXACT_MASS>
482.26817634

> <PUBCHEM_MOLECULAR_FORMULA>
C30H34N4O2

> <PUBCHEM_MOLECULAR_WEIGHT>
482.6

> <PUBCHEM_OPENEYE_CAN_SMILES>
CCC1=CC2=C(C=C1N3CCC(CC3)N4CCOCC4)C(C5=C(C2=O)C6=C(N5)C=C(C=C6)C#N)(C)C

> <PUBCHEM_OPENEYE_ISO_SMILES>
CCC1=CC2=C(C=C1N3CCC(CC3)N4CCOCC4)C(C5=C(C2=O)C6=C(N5)C=C(C=C6)C#N)(C)C

> <PUBCHEM_CACTVS_TPSA>
72.4

> <PUBCHEM_MONOISOTOPIC_WEIGHT>
482.26817634

> <PUBCHEM_TOTAL_CHARGE>
0

> <PUBCHEM_HEAVY_ATOM_COUNT>
36

> <PUBCHEM_ATOM_DEF_STEREO_COUNT>
0

> <PUBCHEM_ATOM_UDEF_STEREO_COUNT>
0

> <PUBCHEM_BOND_DEF_STEREO_COUNT>
0

> <PUBCHEM_BOND_UDEF_STEREO_COUNT>
0

> <PUBCHEM_ISOTOPIC_ATOM_COUNT>
0

> <PUBCHEM_COMPONENT_COUNT>
1

> <PUBCHEM_CACTVS_TAUTO_COUNT>
-1

> <PUBCHEM_COORDINATE_TYPE>
1
5
255

> <PUBCHEM_BONDANNOTATIONS>
13  18  8
13  20  8
14  18  8
14  19  8
15  21  8
19  24  8
20  24  8
21  28  8
28  30  8
28  31  8
30  32  8
31  34  8
32  35  8
34  35  8
5  15  8
5  30  8

$$$$
25126798
  -OEChem-11282412102D

 41 44  0     1  0  0  0  0  0999 V2000
    3.3660    0.8006    0.0000 N   0  0  0  0  0  0  0  0  0  0  0  0
    2.3660    0.8006    0.0000 N   0  0  0  0  0  0  0  0  0  0  0  0
    2.0000   -2.2383    0.0000 N   0  0  0  0  0  0  0  0  0  0  0  0
    6.1239    3.1231    0.0000 N   0  0  0  0  0  0  0  0  0  0  0  0
    4.6783   -3.5430    0.0000 N   0  0  0  0  0  0  0  0  0  0  0  0
    2.8660   -3.7383    0.0000 N   0  0  0  0  0  0  0  0  0  0  0  0
    3.5471    2.5231    0.0000 C   0  0  0  0  0  0  0  0  0  0  0  0
    4.0471    3.3892    0.0000 C   0  0  0  0  0  0  0  0  0  0  0  0
    2.5689    2.7311    0.0000 C   0  0  0  0  0  0  0  0  0  0  0  0
    3.9538    1.6096    0.0000 C   0  0  1  0  0  0  0  0  0  0  0  0
    3.3779    4.1323    0.0000 C   0  0  0  0  0  0  0  0  0  0  0  0
    2.4644    3.7256    0.0000 C   0  0  0  0  0  0  0  0  0  0  0  0
    4.9483    1.5051    0.0000 C   0  0  0  0  0  0  0  0  0  0  0  0
    3.6750   -0.1505    0.0000 C   0  0  0  0  0  0  0  0  0  0  0  0
    2.8660   -0.7383    0.0000 C   0  0  0  0  0  0  0  0  0  0  0  0
    5.5361    2.3141    0.0000 C   0  0  0  0  0  0  0  0  0  0  0  0
    2.0570   -0.1505    0.0000 C   0  0  0  0  0  0  0  0  0  0  0  0
    2.8660   -1.7383    0.0000 C   0  0  0  0  0  0  0  0  0  0  0  0
    3.7320   -2.2383    0.0000 C   0  0  0  0  0  0  0  0  0  0  0  0
    3.7320   -3.2383    0.0000 C   0  0  0  0  0  0  0  0  0  0  0  0
    4.6783   -1.9335    0.0000 C   0  0  0  0  0  0  0  0  0  0  0  0
    5.2619   -2.7383    0.0000 C   0  0  0  0  0  0  0  0  0  0  0  0
    2.0000   -3.2383    0.0000 C   0  0  0  0  0  0  0  0  0  0  0  0
    4.1662    2.4907    0.0000 H   0  0  0  0  0  0  0  0  0  0  0  0
    4.5487    3.0247    0.0000 H   0  0  0  0  0  0  0  0  0  0  0  0
    4.4619    3.8499    0.0000 H   0  0  0  0  0  0  0  0  0  0  0  0
    1.9489    2.7311    0.0000 H   0  0  0  0  0  0  0  0  0  0  0  0
    2.5041    2.1144    0.0000 H   0  0  0  0  0  0  0  0  0  0  0  0
    4.2060    1.0432    0.0000 H   0  0  0  0  0  0  0  0  0  0  0  0
    3.8795    4.4967    0.0000 H   0  0  0  0  0  0  0  0  0  0  0  0
    3.0679    4.6692    0.0000 H   0  0  0  0  0  0  0  0  0  0  0  0
    2.2728    4.3152    0.0000 H   0  0  0  0  0  0  0  0  0  0  0  0
    1.8580    3.5967    0.0000 H   0  0  0  0  0  0  0  0  0  0  0  0
    4.7774    0.9091    0.0000 H   0  0  0  0  0  0  0  0  0  0  0  0
    5.5056    1.2333    0.0000 H   0  0  0  0  0  0  0  0  0  0  0  0
    4.2647   -0.3421    0.0000 H   0  0  0  0  0  0  0  0  0  0  0  0
    1.4674   -0.3421    0.0000 H   0  0  0  0  0  0  0  0  0  0  0  0
    4.8709   -1.3442    0.0000 H   0  0  0  0  0  0  0  0  0  0  0  0
    4.8709   -4.1323    0.0000 H   0  0  0  0  0  0  0  0  0  0  0  0
    5.8819   -2.7383    0.0000 H   0  0  0  0  0  0  0  0  0  0  0  0
    1.4631   -3.5483    0.0000 H   0  0  0  0  0  0  0  0  0  0  0  0
  1  2  1  0  0  0  0
  1 10  1  0  0  0  0
  1 14  1  0  0  0  0
  2 17  2  0  0  0  0
  3 18  1  0  0  0  0
  3 23  2  0  0  0  0
  4 16  3  0  0  0  0
  5 20  1  0  0  0  0
  5 22  1  0  0  0  0
  5 39  1  0  0  0  0
  6 20  2  0  0  0  0
  6 23  1  0  0  0  0
  7  8  1  0  0  0  0
  7  9  1  0  0  0  0
  7 10  1  0  0  0  0
  7 24  1  0  0  0  0
  8 11  1  0  0  0  0
  8 25  1  0  0  0  0
  8 26  1  0  0  0  0
  9 12  1  0  0  0  0
  9 27  1  0  0  0  0
  9 28  1  0  0  0  0
 10 13  1  1  0  0  0
 10 29  1  0  0  0  0
 11 12  1  0  0  0  0
 11 30  1  0  0  0  0
 11 31  1  0  0  0  0
 12 32  1  0  0  0  0
 12 33  1  0  0  0  0
 13 16  1  0  0  0  0
 13 34  1  0  0  0  0
 13 35  1  0  0  0  0
 14 15  2  0  0  0  0
 14 36  1  0  0  0  0
 15 17  1  0  0  0  0
 15 18  1  0  0  0  0
 17 37  1  0  0  0  0
 18 19  2  0  0  0  0
 19 20  1  0  0  0  0
 19 21  1  0  0  0  0
 21 22  2  0  0  0  0
 21 38  1  0  0  0  0
 22 40  1  0  0  0  0
 23 41  1  0  0  0  0
M  END
> <PUBCHEM_COMPOUND_CID>
25126798

> <PUBCHEM_COMPOUND_CANONICALIZED>
1

> <PUBCHEM_CACTVS_COMPLEXITY>
453

> <PUBCHEM_CACTVS_HBOND_ACCEPTOR>
4

> <PUBCHEM_CACTVS_HBOND_DONOR>
1

> <PUBCHEM_CACTVS_ROTATABLE_BOND>
4

> <PUBCHEM_CACTVS_SUBSKEYS>
AAADceB7gAAAAAAAAAAAAAAAAAAAAeLEAAAsAAAAAAAAAFgB/gAAHAAYAAAADSjBHwQ9sN7JkACyBzZnZACShCmxgqAZ2aA4ZJiIqOLA2dGEpAhomALIyC8QgIAOAAAAAAAAAAAAAAAAAAAAAAAAAAAAAA==

> <PUBCHEM_IUPAC_OPENEYE_NAME>
(3R)-3-cyclopentyl-3-[4-(7H-pyrrolo[2,3-d]pyrimidin-4-yl)pyrazol-1-yl]propanenitrile

> <PUBCHEM_IUPAC_CAS_NAME>
(3R)-3-cyclopentyl-3-[4-(7H-pyrrolo[2,3-d]pyrimidin-4-yl)-1-pyrazolyl]propanenitrile

> <PUBCHEM_IUPAC_NAME_MARKUP>
(3<I>R</I>)-3-cyclopentyl-3-[4-(7<I>H</I>-pyrrolo[2,3-d]pyrimidin-4-yl)pyrazol-1-yl]propanenitrile

> <PUBCHEM_IUPAC_NAME>
(3R)-3-cyclopentyl-3-[4-(7H-pyrrolo[2,3-d]pyrimidin-4-yl)pyrazol-1-yl]propanenitrile

> <PUBCHEM_IUPAC_SYSTEMATIC_NAME>
(3R)-3-cyclopentyl-3-[4-(7H-pyrrolo[2,3-d]pyrimidin-4-yl)pyrazol-1-yl]propanenitrile

> <PUBCHEM_IUPAC_TRADITIONAL_NAME>
(3R)-3-cyclopentyl-3-[4-(7H-pyrrolo[2,3-d]pyrimidin-4-yl)pyrazol-1-yl]propionitrile

> <PUBCHEM_IUPAC_INCHI>
InChI=1S/C17H18N6/c18-7-5-15(12-3-1-2-4-12)23-10-13(9-22-23)16-14-6-8-19-17(14)21-11-20-16/h6,8-12,15H,1-5H2,(H,19,20,21)/t15-/m1/s1

> <PUBCHEM_IUPAC_INCHIKEY>
HFNKQEVNSGCOJV-OAHLLOKOSA-N

> <PUBCHEM_XLOGP3_AA>
2.1

> <PUBCHEM_EXACT_MASS>
306.15929460

> <PUBCHEM_MOLECULAR_FORMULA>
C17H18N6

> <PUBCHEM_MOLECULAR_WEIGHT>
306.4

> <PUBCHEM_OPENEYE_CAN_SMILES>
C1CCC(C1)C(CC#N)N2C=C(C=N2)C3=C4C=CNC4=NC=N3

> <PUBCHEM_OPENEYE_ISO_SMILES>
C1CCC(C1)[C@@H](CC#N)N2C=C(C=N2)C3=C4C=CNC4=NC=N3

> <PUBCHEM_CACTVS_TPSA>
83.2

> <PUBCHEM_MONOISOTOPIC_WEIGHT>
306.15929460

> <PUBCHEM_TOTAL_CHARGE>
0

> <PUBCHEM_HEAVY_ATOM_COUNT>
23

> <PUBCHEM_ATOM_DEF_STEREO_COUNT>
1

> <PUBCHEM_ATOM_UDEF_STEREO_COUNT>
0

> <PUBCHEM_BOND_DEF_STEREO_COUNT>
0

> <PUBCHEM_BOND_UDEF_STEREO_COUNT>
0

> <PUBCHEM_ISOTOPIC_ATOM_COUNT>
0

> <PUBCHEM_COMPONENT_COUNT>
1

> <PUBCHEM_CACTVS_TAUTO_COUNT>
-1

> <PUBCHEM_COORDINATE_TYPE>
1
5
255

> <PUBCHEM_BONDANNOTATIONS>
1  14  8
1  2  8
10  13  5
14  15  8
15  17  8
18  19  8
19  20  8
19  21  8
2  17  8
21  22  8
3  18  8
3  23  8
5  20  8
5  22  8
6  20  8
6  23  8

$$$$
176871
  -OEChem-11282412102D

 54 55  0     0  0  0  0  0  0999 V2000
   12.6275    5.3540    0.0000 Cl  0  0  0  0  0  0  0  0  0  0  0  0
    4.0010    5.6743    0.0000 O   0  0  0  0  0  0  0  0  0  0  0  0
    4.0010    7.6743    0.0000 O   0  0  0  0  0  0  0  0  0  0  0  0
    1.4030    6.1743    0.0000 O   0  0  0  0  0  0  0  0  0  0  0  0
    3.1350   10.1743    0.0000 O   0  0  0  0  0  0  0  0  0  0  0  0
    7.4815    4.6397    0.0000 N   0  0  0  0  0  0  0  0  0  0  0  0
    7.4931    7.7090    0.0000 N   0  0  0  0  0  0  0  0  0  0  0  0
    8.3991    6.1535    0.0000 N   0  0  0  0  0  0  0  0  0  0  0  0
    6.5991    6.1743    0.0000 C   0  0  0  0  0  0  0  0  0  0  0  0
    6.5991    7.1743    0.0000 C   0  0  0  0  0  0  0  0  0  0  0  0
    4.8671    6.1743    0.0000 C   0  0  0  0  0  0  0  0  0  0  0  0
    4.8671    7.1743    0.0000 C   0  0  0  0  0  0  0  0  0  0  0  0
    5.7331    5.6743    0.0000 C   0  0  0  0  0  0  0  0  0  0  0  0
    7.4931    5.6396    0.0000 C   0  0  0  0  0  0  0  0  0  0  0  0
    5.7331    7.6743    0.0000 C   0  0  0  0  0  0  0  0  0  0  0  0
    3.1350    6.1743    0.0000 C   0  0  0  0  0  0  0  0  0  0  0  0
    8.3417    4.1297    0.0000 C   0  0  0  0  0  0  0  0  0  0  0  0
    4.0010    8.6743    0.0000 C   0  0  0  0  0  0  0  0  0  0  0  0
    8.3991    7.1951    0.0000 C   0  0  0  0  0  0  0  0  0  0  0  0
    2.2690    5.6743    0.0000 C   0  0  0  0  0  0  0  0  0  0  0  0
    3.1350    9.1743    0.0000 C   0  0  0  0  0  0  0  0  0  0  0  0
    8.3301    3.1298    0.0000 C   0  0  0  0  0  0  0  0  0  0  0  0
    9.2134    4.6197    0.0000 C   0  0  0  0  0  0  0  0  0  0  0  0
    9.1903    2.6198    0.0000 C   0  0  0  0  0  0  0  0  0  0  0  0
   10.0736    4.1097    0.0000 C   0  0  0  0  0  0  0  0  0  0  0  0
   10.0620    3.1098    0.0000 C   0  0  0  0  0  0  0  0  0  0  0  0
    0.5369    5.6743    0.0000 C   0  0  0  0  0  0  0  0  0  0  0  0
    2.2690   10.6743    0.0000 C   0  0  0  0  0  0  0  0  0  0  0  0
    9.1787    1.6199    0.0000 C   0  0  0  0  0  0  0  0  0  0  0  0
    9.1672    0.6200    0.0000 C   0  0  0  0  0  0  0  0  0  0  0  0
    5.7331    5.0543    0.0000 H   0  0  0  0  0  0  0  0  0  0  0  0
    5.7331    8.2943    0.0000 H   0  0  0  0  0  0  0  0  0  0  0  0
    6.9410    4.3360    0.0000 H   0  0  0  0  0  0  0  0  0  0  0  0
    3.5335    6.6493    0.0000 H   0  0  0  0  0  0  0  0  0  0  0  0
    2.7365    6.6493    0.0000 H   0  0  0  0  0  0  0  0  0  0  0  0
    4.6116    8.5666    0.0000 H   0  0  0  0  0  0  0  0  0  0  0  0
    4.2131    9.2569    0.0000 H   0  0  0  0  0  0  0  0  0  0  0  0
    8.9349    7.5072    0.0000 H   0  0  0  0  0  0  0  0  0  0  0  0
    1.8705    5.1994    0.0000 H   0  0  0  0  0  0  0  0  0  0  0  0
    2.6675    5.1994    0.0000 H   0  0  0  0  0  0  0  0  0  0  0  0
    2.5244    9.2820    0.0000 H   0  0  0  0  0  0  0  0  0  0  0  0
    2.9230    8.5917    0.0000 H   0  0  0  0  0  0  0  0  0  0  0  0
    7.7896    2.8260    0.0000 H   0  0  0  0  0  0  0  0  0  0  0  0
    9.2206    5.2396    0.0000 H   0  0  0  0  0  0  0  0  0  0  0  0
   10.6141    4.4135    0.0000 H   0  0  0  0  0  0  0  0  0  0  0  0
   10.5954    2.7936    0.0000 H   0  0  0  0  0  0  0  0  0  0  0  0
    0.2269    6.2112    0.0000 H   0  0  0  0  0  0  0  0  0  0  0  0
    0.0000    5.3643    0.0000 H   0  0  0  0  0  0  0  0  0  0  0  0
    0.8469    5.1374    0.0000 H   0  0  0  0  0  0  0  0  0  0  0  0
    2.5790   11.2112    0.0000 H   0  0  0  0  0  0  0  0  0  0  0  0
    1.7320   10.9843    0.0000 H   0  0  0  0  0  0  0  0  0  0  0  0
    1.9590   10.1374    0.0000 H   0  0  0  0  0  0  0  0  0  0  0  0
    9.1600    0.0000    0.0000 H   0  0  0  0  0  0  0  0  0  0  0  0
   13.6275    5.3540    0.0000 H   0  0  0  0  0  0  0  0  0  0  0  0
  1 54  1  0  0  0  0
  2 11  1  0  0  0  0
  2 16  1  0  0  0  0
  3 12  1  0  0  0  0
  3 18  1  0  0  0  0
  4 20  1  0  0  0  0
  4 27  1  0  0  0  0
  5 21  1  0  0  0  0
  5 28  1  0  0  0  0
  6 14  1  0  0  0  0
  6 17  1  0  0  0  0
  6 33  1  0  0  0  0
  7 10  1  0  0  0  0
  7 19  2  0  0  0  0
  8 14  2  0  0  0  0
  8 19  1  0  0  0  0
  9 10  1  0  0  0  0
  9 13  2  0  0  0  0
  9 14  1  0  0  0  0
 10 15  2  0  0  0  0
 11 12  2  0  0  0  0
 11 13  1  0  0  0  0
 12 15  1  0  0  0  0
 13 31  1  0  0  0  0
 15 32  1  0  0  0  0
 16 20  1  0  0  0  0
 16 34  1  0  0  0  0
 16 35  1  0  0  0  0
 17 22  1  0  0  0  0
 17 23  2  0  0  0  0
 18 21  1  0  0  0  0
 18 36  1  0  0  0  0
 18 37  1  0  0  0  0
 19 38  1  0  0  0  0
 20 39  1  0  0  0  0
 20 40  1  0  0  0  0
 21 41  1  0  0  0  0
 21 42  1  0  0  0  0
 22 24  2  0  0  0  0
 22 43  1  0  0  0  0
 23 25  1  0  0  0  0
 23 44  1  0  0  0  0
 24 26  1  0  0  0  0
 24 29  1  0  0  0  0
 25 26  2  0  0  0  0
 25 45  1  0  0  0  0
 26 46  1  0  0  0  0
 27 47  1  0  0  0  0
 27 48  1  0  0  0  0
 27 49  1  0  0  0  0
 28 50  1  0  0  0  0
 28 51  1  0  0  0  0
 28 52  1  0  0  0  0
 29 30  3  0  0  0  0
 30 53  1  0  0  0  0
M  END
> <PUBCHEM_COMPOUND_CID>
176871

> <PUBCHEM_COMPOUND_CANONICALIZED>
1

> <PUBCHEM_CACTVS_COMPLEXITY>
525

> <PUBCHEM_CACTVS_HBOND_ACCEPTOR>
7

> <PUBCHEM_CACTVS_HBOND_DONOR>
2

> <PUBCHEM_CACTVS_ROTATABLE_BOND>
11

> <PUBCHEM_CACTVS_SUBSKEYS>
AAADceB7OAAEAAAAAAAAAAAAAAAAAAAAAAA8YIAAAAAAAACx9AAAHgAQAAAADAyhngY39vbIFADgGyZjZAiCiCkxIqAJ2CA+7JiNLuLE+duGPCru0BvK6Cew0BMOIEABQgACQABAgAKEAASAAAAAAAAAAA==

> <PUBCHEM_IUPAC_OPENEYE_NAME>
N-(3-ethynylphenyl)-6,7-bis(2-methoxyethoxy)quinazolin-4-amine;hydrochloride

> <PUBCHEM_IUPAC_CAS_NAME>
N-(3-ethynylphenyl)-6,7-bis(2-methoxyethoxy)-4-quinazolinamine;hydrochloride

> <PUBCHEM_IUPAC_NAME_MARKUP>
<I>N</I>-(3-ethynylphenyl)-6,7-bis(2-methoxyethoxy)quinazolin-4-amine;hydrochloride

> <PUBCHEM_IUPAC_NAME>
N-(3-ethynylphenyl)-6,7-bis(2-methoxyethoxy)quinazolin-4-amine;hydrochloride

> <PUBCHEM_IUPAC_SYSTEMATIC_NAME>
N-(3-ethynylphenyl)-6,7-bis(2-methoxyethoxy)quinazolin-4-amine;hydrochloride

> <PUBCHEM_IUPAC_TRADITIONAL_NAME>
[6,7-bis(2-methoxyethoxy)quinazolin-4-yl]-(3-ethynylphenyl)amine;hydrochloride

> <PUBCHEM_IUPAC_INCHI>
InChI=1S/C22H23N3O4.ClH/c1-4-16-6-5-7-17(12-16)25-22-18-13-20(28-10-8-26-2)21(29-11-9-27-3)14-19(18)23-15-24-22;/h1,5-7,12-15H,8-11H2,2-3H3,(H,23,24,25);1H

> <PUBCHEM_IUPAC_INCHIKEY>
GTTBEUCJPZQMDZ-UHFFFAOYSA-N

> <PUBCHEM_EXACT_MASS>
429.1455339

> <PUBCHEM_MOLECULAR_FORMULA>
C22H24ClN3O4

> <PUBCHEM_MOLECULAR_WEIGHT>
429.9

> <PUBCHEM_OPENEYE_CAN_SMILES>
COCCOC1=C(C=C2C(=C1)C(=NC=N2)NC3=CC=CC(=C3)C#C)OCCOC.Cl

> <PUBCHEM_OPENEYE_ISO_SMILES>
COCCOC1=C(C=C2C(=C1)C(=NC=N2)NC3=CC=CC(=C3)C#C)OCCOC.Cl

> <PUBCHEM_CACTVS_TPSA>
74.7

> <PUBCHEM_MONOISOTOPIC_WEIGHT>
429.1455339

> <PUBCHEM_TOTAL_CHARGE>
0

> <PUBCHEM_HEAVY_ATOM_COUNT>
30

> <PUBCHEM_ATOM_DEF_STEREO_COUNT>
0

> <PUBCHEM_ATOM_UDEF_STEREO_COUNT>
0

> <PUBCHEM_BOND_DEF_STEREO_COUNT>
0

> <PUBCHEM_BOND_UDEF_STEREO_COUNT>
0

> <PUBCHEM_ISOTOPIC_ATOM_COUNT>
0

> <PUBCHEM_COMPONENT_COUNT>
2

> <PUBCHEM_CACTVS_TAUTO_COUNT>
-1

> <PUBCHEM_COORDINATE_TYPE>
1
5
255

> <PUBCHEM_BONDANNOTATIONS>
10  15  8
11  12  8
11  13  8
12  15  8
17  22  8
17  23  8
22  24  8
23  25  8
24  26  8
25  26  8
7  10  8
7  19  8
8  14  8
8  19  8
9  10  8
9  13  8
9  14  8

$$$$
9893171
  -OEChem-11282412102D

 66 70  0     0  0  0  0  0  0999 V2000
    8.9560   -1.9970    0.0000 Cl  0  0  0  0  0  0  0  0  0  0  0  0
    3.7320    0.0577    0.0000 O   0  0  0  0  0  0  0  0  0  0  0  0
    3.7320    6.0577    0.0000 O   0  0  0  0  0  0  0  0  0  0  0  0
    5.4641   -2.9423    0.0000 O   0  0  0  0  0  0  0  0  0  0  0  0
    7.3164   -5.1453    0.0000 O   0  0  0  0  0  0  0  0  0  0  0  0
    8.7009   -5.9661    0.0000 O   0  0  0  0  0  0  0  0  0  0  0  0
    2.8660    2.5577    0.0000 N   0  0  0  0  0  0  0  0  0  0  0  0
    2.8660    4.5577    0.0000 N   0  0  0  0  0  0  0  0  0  0  0  0
    7.2125   -2.9769    0.0000 N   0  0  0  0  0  0  0  0  0  0  0  0
    7.2241    0.0924    0.0000 N   0  0  0  0  0  0  0  0  0  0  0  0
    8.1301   -1.4631    0.0000 N   0  0  0  0  0  0  0  0  0  0  0  0
    9.7931   -4.5068    0.0000 N   0  0  0  0  0  0  0  0  0  0  0  0
    3.7320    3.0577    0.0000 C   0  0  0  0  0  0  0  0  0  0  0  0
    2.0000    3.0577    0.0000 C   0  0  0  0  0  0  0  0  0  0  0  0
    3.7320    4.0577    0.0000 C   0  0  0  0  0  0  0  0  0  0  0  0
    2.0000    4.0577    0.0000 C   0  0  0  0  0  0  0  0  0  0  0  0
    2.8660    1.5577    0.0000 C   0  0  0  0  0  0  0  0  0  0  0  0
    3.7320    1.0577    0.0000 C   0  0  0  0  0  0  0  0  0  0  0  0
    2.8660    5.5577    0.0000 C   0  0  0  0  0  0  0  0  0  0  0  0
    2.0000    6.0577    0.0000 C   0  0  0  0  0  0  0  0  0  0  0  0
    4.5981   -0.4423    0.0000 C   0  0  0  0  0  0  0  0  0  0  0  0
    6.3301   -1.4423    0.0000 C   0  0  0  0  0  0  0  0  0  0  0  0
    4.5981   -1.4423    0.0000 C   0  0  0  0  0  0  0  0  0  0  0  0
    5.4641   -1.9423    0.0000 C   0  0  0  0  0  0  0  0  0  0  0  0
    5.4641    0.0577    0.0000 C   0  0  0  0  0  0  0  0  0  0  0  0
    6.3301   -0.4423    0.0000 C   0  0  0  0  0  0  0  0  0  0  0  0
    7.2241   -1.9769    0.0000 C   0  0  0  0  0  0  0  0  0  0  0  0
    4.5981   -3.4423    0.0000 C   0  0  0  0  0  0  0  0  0  0  0  0
    8.0727   -3.4869    0.0000 C   0  0  0  0  0  0  0  0  0  0  0  0
    4.5981   -4.4423    0.0000 C   0  0  0  0  0  0  0  0  0  0  0  0
    3.7320   -2.9423    0.0000 C   0  0  0  0  0  0  0  0  0  0  0  0
    8.0611   -4.4868    0.0000 C   0  0  0  0  0  0  0  0  0  0  0  0
    8.1301   -0.4215    0.0000 C   0  0  0  0  0  0  0  0  0  0  0  0
    8.9213   -4.9968    0.0000 C   0  0  0  0  0  0  0  0  0  0  0  0
    8.9444   -2.9969    0.0000 C   0  0  0  0  0  0  0  0  0  0  0  0
    7.7110   -6.0577    0.0000 C   0  0  0  0  0  0  0  0  0  0  0  0
    9.8046   -3.5069    0.0000 C   0  0  0  0  0  0  0  0  0  0  0  0
    3.9441    2.4751    0.0000 H   0  0  0  0  0  0  0  0  0  0  0  0
    4.3426    3.1654    0.0000 H   0  0  0  0  0  0  0  0  0  0  0  0
    1.3894    3.1654    0.0000 H   0  0  0  0  0  0  0  0  0  0  0  0
    1.7880    2.4751    0.0000 H   0  0  0  0  0  0  0  0  0  0  0  0
    4.3426    3.9501    0.0000 H   0  0  0  0  0  0  0  0  0  0  0  0
    3.9441    4.6403    0.0000 H   0  0  0  0  0  0  0  0  0  0  0  0
    1.7880    4.6403    0.0000 H   0  0  0  0  0  0  0  0  0  0  0  0
    1.3894    3.9501    0.0000 H   0  0  0  0  0  0  0  0  0  0  0  0
    2.2554    1.6654    0.0000 H   0  0  0  0  0  0  0  0  0  0  0  0
    2.6540    0.9751    0.0000 H   0  0  0  0  0  0  0  0  0  0  0  0
    4.3426    0.9501    0.0000 H   0  0  0  0  0  0  0  0  0  0  0  0
    3.9441    1.6403    0.0000 H   0  0  0  0  0  0  0  0  0  0  0  0
    2.3100    6.5946    0.0000 H   0  0  0  0  0  0  0  0  0  0  0  0
    1.4631    6.3677    0.0000 H   0  0  0  0  0  0  0  0  0  0  0  0
    1.6900    5.5208    0.0000 H   0  0  0  0  0  0  0  0  0  0  0  0
    4.0611   -1.7523    0.0000 H   0  0  0  0  0  0  0  0  0  0  0  0
    5.4641    0.6777    0.0000 H   0  0  0  0  0  0  0  0  0  0  0  0
    4.5981   -2.8223    0.0000 H   0  0  0  0  0  0  0  0  0  0  0  0
    6.6720   -3.2806    0.0000 H   0  0  0  0  0  0  0  0  0  0  0  0
    3.9781   -4.4423    0.0000 H   0  0  0  0  0  0  0  0  0  0  0  0
    4.5981   -5.0623    0.0000 H   0  0  0  0  0  0  0  0  0  0  0  0
    5.2181   -4.4423    0.0000 H   0  0  0  0  0  0  0  0  0  0  0  0
    4.0420   -2.4054    0.0000 H   0  0  0  0  0  0  0  0  0  0  0  0
    3.1951   -2.6323    0.0000 H   0  0  0  0  0  0  0  0  0  0  0  0
    3.4220   -3.4792    0.0000 H   0  0  0  0  0  0  0  0  0  0  0  0
    8.6659   -0.1094    0.0000 H   0  0  0  0  0  0  0  0  0  0  0  0
    7.1193   -6.2426    0.0000 H   0  0  0  0  0  0  0  0  0  0  0  0
    7.8328   -6.6656    0.0000 H   0  0  0  0  0  0  0  0  0  0  0  0
   10.3451   -3.2031    0.0000 H   0  0  0  0  0  0  0  0  0  0  0  0
  1 35  1  0  0  0  0
  2 18  1  0  0  0  0
  2 21  1  0  0  0  0
  3 19  2  0  0  0  0
  4 24  1  0  0  0  0
  4 28  1  0  0  0  0
  5 32  1  0  0  0  0
  5 36  1  0  0  0  0
  6 34  1  0  0  0  0
  6 36  1  0  0  0  0
  7 13  1  0  0  0  0
  7 14  1  0  0  0  0
  7 17  1  0  0  0  0
  8 15  1  0  0  0  0
  8 16  1  0  0  0  0
  8 19  1  0  0  0  0
  9 27  1  0  0  0  0
  9 29  1  0  0  0  0
  9 56  1  0  0  0  0
 10 26  1  0  0  0  0
 10 33  2  0  0  0  0
 11 27  2  0  0  0  0
 11 33  1  0  0  0  0
 12 34  2  0  0  0  0
 12 37  1  0  0  0  0
 13 15  1  0  0  0  0
 13 38  1  0  0  0  0
 13 39  1  0  0  0  0
 14 16  1  0  0  0  0
 14 40  1  0  0  0  0
 14 41  1  0  0  0  0
 15 42  1  0  0  0  0
 15 43  1  0  0  0  0
 16 44  1  0  0  0  0
 16 45  1  0  0  0  0
 17 18  1  0  0  0  0
 17 46  1  0  0  0  0
 17 47  1  0  0  0  0
 18 48  1  0  0  0  0
 18 49  1  0  0  0  0
 19 20  1  0  0  0  0
 20 50  1  0  0  0  0
 20 51  1  0  0  0  0
 20 52  1  0  0  0  0
 21 23  1  0  0  0  0
 21 25  2  0  0  0  0
 22 24  1  0  0  0  0
 22 26  2  0  0  0  0
 22 27  1  0  0  0  0
 23 24  2  0  0  0  0
 23 53  1  0  0  0  0
 25 26  1  0  0  0  0
 25 54  1  0  0  0  0
 28 30  1  0  0  0  0
 28 31  1  0  0  0  0
 28 55  1  0  0  0  0
 29 32  2  0  0  0  0
 29 35  1  0  0  0  0
 30 57  1  0  0  0  0
 30 58  1  0  0  0  0
 30 59  1  0  0  0  0
 31 60  1  0  0  0  0
 31 61  1  0  0  0  0
 31 62  1  0  0  0  0
 32 34  1  0  0  0  0
 33 63  1  0  0  0  0
 35 37  2  0  0  0  0
 36 64  1  0  0  0  0
 36 65  1  0  0  0  0
 37 66  1  0  0  0  0
M  END
> <PUBCHEM_COMPOUND_CID>
9893171

> <PUBCHEM_COMPOUND_CANONICALIZED>
1

> <PUBCHEM_CACTVS_COMPLEXITY>
759

> <PUBCHEM_CACTVS_HBOND_ACCEPTOR>
10

> <PUBCHEM_CACTVS_HBOND_DONOR>
1

> <PUBCHEM_CACTVS_ROTATABLE_BOND>
8

> <PUBCHEM_CACTVS_SUBSKEYS>
AAADceB7uAAEAAAAAAAAAAAAAAAAASAAAAA8WLEAAAAAAFix/AAAHgIQAAAADB7hnic//vfIFACoAzd3dASCiCkxZ6AB2CA/7pifb2LF+9v3PCrvxh/e6Cew8C8OIAAACgAKAABAAAAUABQAAAAAAAAAAA==

> <PUBCHEM_IUPAC_OPENEYE_NAME>
1-[4-[2-[4-[(6-chloro-[1,3]dioxolo[4,5-b]pyridin-7-yl)amino]-5-isopropoxy-quinazolin-7-yl]oxyethyl]piperazin-1-yl]ethanone

> <PUBCHEM_IUPAC_CAS_NAME>
1-[4-[2-[[4-[(6-chloro-[1,3]dioxolo[4,5-b]pyridin-7-yl)amino]-5-propan-2-yloxy-7-quinazolinyl]oxy]ethyl]-1-piperazinyl]ethanone

> <PUBCHEM_IUPAC_NAME_MARKUP>
1-[4-[2-[4-[(6-chloro-[1,3]dioxolo[4,5-b]pyridin-7-yl)amino]-5-propan-2-yloxyquinazolin-7-yl]oxyethyl]piperazin-1-yl]ethanone

> <PUBCHEM_IUPAC_NAME>
1-[4-[2-[4-[(6-chloro-[1,3]dioxolo[4,5-b]pyridin-7-yl)amino]-5-propan-2-yloxyquinazolin-7-yl]oxyethyl]piperazin-1-yl]ethanone

> <PUBCHEM_IUPAC_SYSTEMATIC_NAME>
1-[4-[2-[4-[(6-chloranyl-[1,3]dioxolo[4,5-b]pyridin-7-yl)amino]-5-propan-2-yloxy-quinazolin-7-yl]oxyethyl]piperazin-1-yl]ethanone

> <PUBCHEM_IUPAC_TRADITIONAL_NAME>
1-[4-[2-[4-[(6-chloro-[1,3]dioxolo[4,5-b]pyridin-7-yl)amino]-5-isopropoxy-quinazolin-7-yl]oxyethyl]piperazino]ethanone

> <PUBCHEM_IUPAC_INCHI>
InChI=1S/C25H29ClN6O5/c1-15(2)37-20-11-17(34-9-8-31-4-6-32(7-5-31)16(3)33)10-19-21(20)24(29-13-28-19)30-22-18(26)12-27-25-23(22)35-14-36-25/h10-13,15H,4-9,14H2,1-3H3,(H,27,28,29,30)

> <PUBCHEM_IUPAC_INCHIKEY>
MVWATCATLSSVBH-UHFFFAOYSA-N

> <PUBCHEM_XLOGP3_AA>
3.2

> <PUBCHEM_EXACT_MASS>
528.1887957

> <PUBCHEM_MOLECULAR_FORMULA>
C25H29ClN6O5

> <PUBCHEM_MOLECULAR_WEIGHT>
529.0

> <PUBCHEM_OPENEYE_CAN_SMILES>
CC(C)OC1=CC(=CC2=C1C(=NC=N2)NC3=C4C(=NC=C3Cl)OCO4)OCCN5CCN(CC5)C(=O)C

> <PUBCHEM_OPENEYE_ISO_SMILES>
CC(C)OC1=CC(=CC2=C1C(=NC=N2)NC3=C4C(=NC=C3Cl)OCO4)OCCN5CCN(CC5)C(=O)C

> <PUBCHEM_CACTVS_TPSA>
111

> <PUBCHEM_MONOISOTOPIC_WEIGHT>
528.1887957

> <PUBCHEM_TOTAL_CHARGE>
0

> <PUBCHEM_HEAVY_ATOM_COUNT>
37

> <PUBCHEM_ATOM_DEF_STEREO_COUNT>
0

> <PUBCHEM_ATOM_UDEF_STEREO_COUNT>
0

> <PUBCHEM_BOND_DEF_STEREO_COUNT>
0

> <PUBCHEM_BOND_UDEF_STEREO_COUNT>
0

> <PUBCHEM_ISOTOPIC_ATOM_COUNT>
0

> <PUBCHEM_COMPONENT_COUNT>
1

> <PUBCHEM_CACTVS_TAUTO_COUNT>
-1

> <PUBCHEM_COORDINATE_TYPE>
1
5
255

> <PUBCHEM_BONDANNOTATIONS>
10  26  8
10  33  8
11  27  8
11  33  8
12  34  8
12  37  8
21  23  8
21  25  8
22  24  8
22  26  8
22  27  8
23  24  8
25  26  8
29  32  8
29  35  8
32  34  8
35  37  8

$$$$
134436906
  -OEChem-11282412102D

 70 75  0     1  0  0  0  0  0999 V2000
    5.2306    7.7970    0.0000 O   0  0  0  0  0  0  0  0  0  0  0  0
    3.7320   -5.9962    0.0000 O   0  0  0  0  0  0  0  0  0  0  0  0
    2.0000   -7.9962    0.0000 O   0  0  0  0  0  0  0  0  0  0  0  0
    6.3475    3.3526    0.0000 N   0  0  0  0  0  0  0  0  0  0  0  0
    5.4641    0.0038    0.0000 N   0  0  0  0  0  0  0  0  0  0  0  0
    6.3301   -1.4962    0.0000 N   0  0  0  0  0  0  0  0  0  0  0  0
    6.6494    6.8036    0.0000 N   0  0  0  0  0  0  0  0  0  0  0  0
    6.3301   -5.4962    0.0000 N   0  0  0  0  0  0  0  0  0  0  0  0
    7.2764   -5.8009    0.0000 N   0  0  0  0  0  0  0  0  0  0  0  0
    7.8977   -2.2904    0.0000 N   0  0  0  0  0  0  0  0  0  0  0  0
    5.8773    2.0351    0.0000 C   0  0  3  0  0  0  0  0  0  0  0  0
    5.0581    2.6086    0.0000 C   0  0  3  0  0  0  0  0  0  0  0  0
    3.8828    2.2525    0.0000 C   0  0  0  0  0  0  0  0  0  0  0  0
    6.2731    0.5916    0.0000 C   0  0  0  0  0  0  0  0  0  0  0  0
    4.6551    0.5916    0.0000 C   0  0  0  0  0  0  0  0  0  0  0  0
    6.9210    4.1718    0.0000 C   0  0  0  0  0  0  0  0  0  0  0  0
    5.4641   -0.9962    0.0000 C   0  0  0  0  0  0  0  0  0  0  0  0
    6.4984    5.0781    0.0000 C   0  0  0  0  0  0  0  0  0  0  0  0
    4.5981   -1.4962    0.0000 C   0  0  0  0  0  0  0  0  0  0  0  0
    5.5022    5.1653    0.0000 C   0  0  0  0  0  0  0  0  0  0  0  0
    7.0720    5.8973    0.0000 C   0  0  0  0  0  0  0  0  0  0  0  0
    4.5981   -2.4962    0.0000 C   0  0  0  0  0  0  0  0  0  0  0  0
    6.3301   -2.4962    0.0000 C   0  0  0  0  0  0  0  0  0  0  0  0
    5.4641   -2.9962    0.0000 C   0  0  0  0  0  0  0  0  0  0  0  0
    5.0796    6.0716    0.0000 C   0  0  0  0  0  0  0  0  0  0  0  0
    5.6532    6.8907    0.0000 C   0  0  0  0  0  0  0  0  0  0  0  0
    5.4641   -3.9962    0.0000 C   0  0  0  0  0  0  0  0  0  0  0  0
    6.3301   -4.4962    0.0000 C   0  0  0  0  0  0  0  0  0  0  0  0
    4.5981   -4.4962    0.0000 C   0  0  0  0  0  0  0  0  0  0  0  0
    4.5981   -5.4962    0.0000 C   0  0  0  0  0  0  0  0  0  0  0  0
    7.2764   -4.1914    0.0000 C   0  0  0  0  0  0  0  0  0  0  0  0
    5.4641   -5.9962    0.0000 C   0  0  0  0  0  0  0  0  0  0  0  0
    5.8041    8.6162    0.0000 C   0  0  0  0  0  0  0  0  0  0  0  0
    7.8600   -4.9962    0.0000 C   0  0  0  0  0  0  0  0  0  0  0  0
    2.8660   -7.4962    0.0000 C   0  0  0  0  0  0  0  0  0  0  0  0
    3.7320   -6.9962    0.0000 C   0  0  0  0  0  0  0  0  0  0  0  0
    3.3660   -8.3622    0.0000 C   0  0  0  0  0  0  0  0  0  0  0  0
    2.3660   -6.6302    0.0000 C   0  0  0  0  0  0  0  0  0  0  0  0
    7.5870   -3.2409    0.0000 C   0  0  0  0  0  0  0  0  0  0  0  0
    6.4968    2.0118    0.0000 H   0  0  0  0  0  0  0  0  0  0  0  0
    4.8117    3.1776    0.0000 H   0  0  0  0  0  0  0  0  0  0  0  0
    3.4913    2.7332    0.0000 H   0  0  0  0  0  0  0  0  0  0  0  0
    3.5867    1.7078    0.0000 H   0  0  0  0  0  0  0  0  0  0  0  0
    6.5748    0.0499    0.0000 H   0  0  0  0  0  0  0  0  0  0  0  0
    6.8471    0.8261    0.0000 H   0  0  0  0  0  0  0  0  0  0  0  0
    4.0708    0.7989    0.0000 H   0  0  0  0  0  0  0  0  0  0  0  0
    4.3662    0.0430    0.0000 H   0  0  0  0  0  0  0  0  0  0  0  0
    7.3594    3.7334    0.0000 H   0  0  0  0  0  0  0  0  0  0  0  0
    7.4289    4.5274    0.0000 H   0  0  0  0  0  0  0  0  0  0  0  0
    4.0611   -1.1862    0.0000 H   0  0  0  0  0  0  0  0  0  0  0  0
    5.1466    4.6574    0.0000 H   0  0  0  0  0  0  0  0  0  0  0  0
    7.6896    5.8432    0.0000 H   0  0  0  0  0  0  0  0  0  0  0  0
    4.0611   -2.8062    0.0000 H   0  0  0  0  0  0  0  0  0  0  0  0
    6.8671   -2.8062    0.0000 H   0  0  0  0  0  0  0  0  0  0  0  0
    4.4620    6.1256    0.0000 H   0  0  0  0  0  0  0  0  0  0  0  0
    4.0611   -4.1862    0.0000 H   0  0  0  0  0  0  0  0  0  0  0  0
    5.4641   -6.6162    0.0000 H   0  0  0  0  0  0  0  0  0  0  0  0
    6.3120    8.2606    0.0000 H   0  0  0  0  0  0  0  0  0  0  0  0
    6.1598    9.1241    0.0000 H   0  0  0  0  0  0  0  0  0  0  0  0
    5.2963    8.9718    0.0000 H   0  0  0  0  0  0  0  0  0  0  0  0
    3.9441   -7.5788    0.0000 H   0  0  0  0  0  0  0  0  0  0  0  0
    4.3426   -6.8885    0.0000 H   0  0  0  0  0  0  0  0  0  0  0  0
    8.4800   -4.9962    0.0000 H   0  0  0  0  0  0  0  0  0  0  0  0
    2.8291   -8.6722    0.0000 H   0  0  0  0  0  0  0  0  0  0  0  0
    3.6760   -8.8992    0.0000 H   0  0  0  0  0  0  0  0  0  0  0  0
    3.9030   -8.0522    0.0000 H   0  0  0  0  0  0  0  0  0  0  0  0
    2.9030   -6.3202    0.0000 H   0  0  0  0  0  0  0  0  0  0  0  0
    2.0560   -6.0932    0.0000 H   0  0  0  0  0  0  0  0  0  0  0  0
    1.8291   -6.9402    0.0000 H   0  0  0  0  0  0  0  0  0  0  0  0
    2.0000   -8.6162    0.0000 H   0  0  0  0  0  0  0  0  0  0  0  0
  1 26  1  0  0  0  0
  1 33  1  0  0  0  0
  2 30  1  0  0  0  0
  2 36  1  0  0  0  0
  3 35  1  0  0  0  0
  3 70  1  0  0  0  0
  4 11  1  0  0  0  0
  4 12  1  0  0  0  0
  4 16  1  0  0  0  0
  5 14  1  0  0  0  0
  5 15  1  0  0  0  0
  5 17  1  0  0  0  0
  6 17  2  0  0  0  0
  6 23  1  0  0  0  0
  7 21  1  0  0  0  0
  7 26  2  0  0  0  0
  8  9  1  0  0  0  0
  8 28  1  0  0  0  0
  8 32  1  0  0  0  0
  9 34  2  0  0  0  0
 10 39  3  0  0  0  0
 11 13  1  0  0  0  0
 11 14  1  0  0  0  0
 11 40  1  0  0  0  0
 12 13  1  0  0  0  0
 12 15  1  0  0  0  0
 12 41  1  0  0  0  0
 13 42  1  0  0  0  0
 13 43  1  0  0  0  0
 14 44  1  0  0  0  0
 14 45  1  0  0  0  0
 15 46  1  0  0  0  0
 15 47  1  0  0  0  0
 16 18  1  0  0  0  0
 16 48  1  0  0  0  0
 16 49  1  0  0  0  0
 17 19  1  0  0  0  0
 18 20  1  0  0  0  0
 18 21  2  0  0  0  0
 19 22  2  0  0  0  0
 19 50  1  0  0  0  0
 20 25  2  0  0  0  0
 20 51  1  0  0  0  0
 21 52  1  0  0  0  0
 22 24  1  0  0  0  0
 22 53  1  0  0  0  0
 23 24  2  0  0  0  0
 23 54  1  0  0  0  0
 24 27  1  0  0  0  0
 25 26  1  0  0  0  0
 25 55  1  0  0  0  0
 27 28  1  0  0  0  0
 27 29  2  0  0  0  0
 28 31  2  0  0  0  0
 29 30  1  0  0  0  0
 29 56  1  0  0  0  0
 30 32  2  0  0  0  0
 31 34  1  0  0  0  0
 31 39  1  0  0  0  0
 32 57  1  0  0  0  0
 33 58  1  0  0  0  0
 33 59  1  0  0  0  0
 33 60  1  0  0  0  0
 34 63  1  0  0  0  0
 35 36  1  0  0  0  0
 35 37  1  0  0  0  0
 35 38  1  0  0  0  0
 36 61  1  0  0  0  0
 36 62  1  0  0  0  0
 37 64  1  0  0  0  0
 37 65  1  0  0  0  0
 37 66  1  0  0  0  0
 38 67  1  0  0  0  0
 38 68  1  0  0  0  0
 38 69  1  0  0  0  0
M  END
> <PUBCHEM_COMPOUND_CID>
134436906

> <PUBCHEM_COMPOUND_CANONICALIZED>
1

> <PUBCHEM_CACTVS_COMPLEXITY>
885

> <PUBCHEM_CACTVS_HBOND_ACCEPTOR>
9

> <PUBCHEM_CACTVS_HBOND_DONOR>
1

> <PUBCHEM_CACTVS_ROTATABLE_BOND>
8

> <PUBCHEM_CACTVS_SUBSKEYS>
AAADceB7sAAAAAAAAAAAAAAAAABYAWAAAAAsWLFiwAAAAFgB/gAAHgAICAAADGzhngY/9rMIFgCyBzZnZASyjCkx4iAZ2CA/bJiP5uLE+duXvCjsyBPb6C+w0PIOgAAAAAAAAAAAAAAAAAAAAAAAAAAAAA==

> <PUBCHEM_IUPAC_OPENEYE_NAME>
6-(2-hydroxy-2-methyl-propoxy)-4-[6-[6-[(6-methoxy-3-pyridyl)methyl]-3,6-diazabicyclo[3.1.1]heptan-3-yl]-3-pyridyl]pyrazolo[1,5-a]pyridine-3-carbonitrile

> <PUBCHEM_IUPAC_CAS_NAME>
6-(2-hydroxy-2-methylpropoxy)-4-[6-[6-[(6-methoxy-3-pyridinyl)methyl]-3,6-diazabicyclo[3.1.1]heptan-3-yl]-3-pyridinyl]-3-pyrazolo[1,5-a]pyridinecarbonitrile

> <PUBCHEM_IUPAC_NAME_MARKUP>
6-(2-hydroxy-2-methylpropoxy)-4-[6-[6-[(6-methoxypyridin-3-yl)methyl]-3,6-diazabicyclo[3.1.1]heptan-3-yl]pyridin-3-yl]pyrazolo[1,5-a]pyridine-3-carbonitrile

> <PUBCHEM_IUPAC_NAME>
6-(2-hydroxy-2-methylpropoxy)-4-[6-[6-[(6-methoxypyridin-3-yl)methyl]-3,6-diazabicyclo[3.1.1]heptan-3-yl]pyridin-3-yl]pyrazolo[1,5-a]pyridine-3-carbonitrile

> <PUBCHEM_IUPAC_SYSTEMATIC_NAME>
4-[6-[6-[(6-methoxypyridin-3-yl)methyl]-3,6-diazabicyclo[3.1.1]heptan-3-yl]pyridin-3-yl]-6-(2-methyl-2-oxidanyl-propoxy)pyrazolo[1,5-a]pyridine-3-carbonitrile

> <PUBCHEM_IUPAC_TRADITIONAL_NAME>
6-(2-hydroxy-2-methyl-propoxy)-4-[6-[6-[(6-methoxy-3-pyridyl)methyl]-3,6-diazabicyclo[3.1.1]heptan-3-yl]-3-pyridyl]pyrazolo[1,5-a]pyridine-3-carbonitrile

> <PUBCHEM_IUPAC_INCHI>
InChI=1S/C29H31N7O3/c1-29(2,37)18-39-24-9-25(28-21(10-30)13-33-36(28)17-24)20-5-6-26(31-12-20)34-15-22-8-23(16-34)35(22)14-19-4-7-27(38-3)32-11-19/h4-7,9,11-13,17,22-23,37H,8,14-16,18H2,1-3H3

> <PUBCHEM_IUPAC_INCHIKEY>
XIIOFHFUYBLOLW-UHFFFAOYSA-N

> <PUBCHEM_XLOGP3_AA>
2.5

> <PUBCHEM_EXACT_MASS>
525.24883788

> <PUBCHEM_MOLECULAR_FORMULA>
C29H31N7O3

> <PUBCHEM_MOLECULAR_WEIGHT>
525.6

> <PUBCHEM_OPENEYE_CAN_SMILES>
CC(C)(COC1=CN2C(=C(C=N2)C#N)C(=C1)C3=CN=C(C=C3)N4CC5CC(C4)N5CC6=CN=C(C=C6)OC)O

> <PUBCHEM_OPENEYE_ISO_SMILES>
CC(C)(COC1=CN2C(=C(C=N2)C#N)C(=C1)C3=CN=C(C=C3)N4CC5CC(C4)N5CC6=CN=C(C=C6)OC)O

> <PUBCHEM_CACTVS_TPSA>
112

> <PUBCHEM_MONOISOTOPIC_WEIGHT>
525.24883788

> <PUBCHEM_TOTAL_CHARGE>
0

> <PUBCHEM_HEAVY_ATOM_COUNT>
39

> <PUBCHEM_ATOM_DEF_STEREO_COUNT>
0

> <PUBCHEM_ATOM_UDEF_STEREO_COUNT>
2

> <PUBCHEM_BOND_DEF_STEREO_COUNT>
0

> <PUBCHEM_BOND_UDEF_STEREO_COUNT>
0

> <PUBCHEM_ISOTOPIC_ATOM_COUNT>
0

> <PUBCHEM_COMPONENT_COUNT>
1

> <PUBCHEM_CACTVS_TAUTO_COUNT>
-1

> <PUBCHEM_COORDINATE_TYPE>
1
5
255

> <PUBCHEM_BONDANNOTATIONS>
11  13  3
12  13  3
17  19  8
18  20  8
18  21  8
19  22  8
20  25  8
22  24  8
23  24  8
25  26  8
27  28  8
27  29  8
28  31  8
29  30  8
30  32  8
31  34  8
6  17  8
6  23  8
7  21  8
7  26  8
8  28  8
8  32  8
8  9  8
9  34  8

$$$$
118480924
  -OEChem-11282412102D

 53 57  0     0  0  0  0  0  0999 V2000
    4.5981    0.0761    0.0000 F   0  0  0  0  0  0  0  0  0  0  0  0
    5.4641   -6.4239    0.0000 F   0  0  0  0  0  0  0  0  0  0  0  0
    3.7320   -3.4239    0.0000 F   0  0  0  0  0  0  0  0  0  0  0  0
    2.0000   -6.4239    0.0000 F   0  0  0  0  0  0  0  0  0  0  0  0
    8.4530    3.8313    0.0000 O   0  0  0  0  0  0  0  0  0  0  0  0
    4.5981   -2.9239    0.0000 O   0  0  0  0  0  0  0  0  0  0  0  0
    8.7260    2.0761    0.0000 N   0  0  0  0  0  0  0  0  0  0  0  0
    5.5211    4.6639    0.0000 N   0  0  0  0  0  0  0  0  0  0  0  0
    7.1391    4.6639    0.0000 N   0  0  0  0  0  0  0  0  0  0  0  0
    6.3301   -2.9239    0.0000 N   0  0  0  0  0  0  0  0  0  0  0  0
    5.4641   -4.4239    0.0000 N   0  0  0  0  0  0  0  0  0  0  0  0
    7.1962    1.5761    0.0000 C   0  0  0  0  0  0  0  0  0  0  0  0
    7.1962    2.5761    0.0000 C   0  0  0  0  0  0  0  0  0  0  0  0
    8.1424    1.2713    0.0000 C   0  0  0  0  0  0  0  0  0  0  0  0
    6.3301    1.0761    0.0000 C   0  0  0  0  0  0  0  0  0  0  0  0
    6.3301    3.0761    0.0000 C   0  0  0  0  0  0  0  0  0  0  0  0
    8.1424    2.8808    0.0000 C   0  0  0  0  0  0  0  0  0  0  0  0
    5.4641    1.5761    0.0000 C   0  0  0  0  0  0  0  0  0  0  0  0
    6.3301    0.0761    0.0000 C   0  0  0  0  0  0  0  0  0  0  0  0
    5.4641    2.5761    0.0000 C   0  0  0  0  0  0  0  0  0  0  0  0
    6.3301    4.0761    0.0000 C   0  0  0  0  0  0  0  0  0  0  0  0
    5.4641   -0.4239    0.0000 C   0  0  0  0  0  0  0  0  0  0  0  0
    7.1962   -0.4239    0.0000 C   0  0  0  0  0  0  0  0  0  0  0  0
    5.8301    5.6149    0.0000 C   0  0  0  0  0  0  0  0  0  0  0  0
    5.4641   -1.4239    0.0000 C   0  0  0  0  0  0  0  0  0  0  0  0
    7.1962   -1.4239    0.0000 C   0  0  0  0  0  0  0  0  0  0  0  0
    6.3301   -1.9239    0.0000 C   0  0  0  0  0  0  0  0  0  0  0  0
    6.8301    5.6149    0.0000 C   0  0  0  0  0  0  0  0  0  0  0  0
    5.2423    6.4239    0.0000 C   0  0  0  0  0  0  0  0  0  0  0  0
    5.4641   -3.4239    0.0000 C   0  0  0  0  0  0  0  0  0  0  0  0
    4.5981   -4.9239    0.0000 C   0  0  0  0  0  0  0  0  0  0  0  0
    4.5981   -5.9239    0.0000 C   0  0  0  0  0  0  0  0  0  0  0  0
    3.7320   -4.4239    0.0000 C   0  0  0  0  0  0  0  0  0  0  0  0
    3.7320   -6.4239    0.0000 C   0  0  0  0  0  0  0  0  0  0  0  0
    2.8660   -4.9239    0.0000 C   0  0  0  0  0  0  0  0  0  0  0  0
    2.8660   -5.9239    0.0000 C   0  0  0  0  0  0  0  0  0  0  0  0
    7.8913    0.7044    0.0000 H   0  0  0  0  0  0  0  0  0  0  0  0
    8.6798    0.9621    0.0000 H   0  0  0  0  0  0  0  0  0  0  0  0
    9.3460    2.0761    0.0000 H   0  0  0  0  0  0  0  0  0  0  0  0
    4.9272    1.2661    0.0000 H   0  0  0  0  0  0  0  0  0  0  0  0
    4.9272    2.8861    0.0000 H   0  0  0  0  0  0  0  0  0  0  0  0
    7.7331   -0.1139    0.0000 H   0  0  0  0  0  0  0  0  0  0  0  0
    4.9315    4.4723    0.0000 H   0  0  0  0  0  0  0  0  0  0  0  0
    4.9272   -1.7339    0.0000 H   0  0  0  0  0  0  0  0  0  0  0  0
    7.7331   -1.7339    0.0000 H   0  0  0  0  0  0  0  0  0  0  0  0
    7.1946    6.1165    0.0000 H   0  0  0  0  0  0  0  0  0  0  0  0
    5.7439    6.7884    0.0000 H   0  0  0  0  0  0  0  0  0  0  0  0
    4.8779    6.9255    0.0000 H   0  0  0  0  0  0  0  0  0  0  0  0
    4.7408    6.0595    0.0000 H   0  0  0  0  0  0  0  0  0  0  0  0
    6.8671   -3.2339    0.0000 H   0  0  0  0  0  0  0  0  0  0  0  0
    6.0010   -4.7339    0.0000 H   0  0  0  0  0  0  0  0  0  0  0  0
    3.7320   -7.0439    0.0000 H   0  0  0  0  0  0  0  0  0  0  0  0
    2.3291   -4.6139    0.0000 H   0  0  0  0  0  0  0  0  0  0  0  0
  1 22  1  0  0  0  0
  2 32  1  0  0  0  0
  3 33  1  0  0  0  0
  4 36  1  0  0  0  0
  5 17  2  0  0  0  0
  6 30  2  0  0  0  0
  7 14  1  0  0  0  0
  7 17  1  0  0  0  0
  7 39  1  0  0  0  0
  8 21  1  0  0  0  0
  8 24  1  0  0  0  0
  8 43  1  0  0  0  0
  9 21  2  0  0  0  0
  9 28  1  0  0  0  0
 10 27  1  0  0  0  0
 10 30  1  0  0  0  0
 10 50  1  0  0  0  0
 11 30  1  0  0  0  0
 11 31  1  0  0  0  0
 11 51  1  0  0  0  0
 12 13  1  0  0  0  0
 12 14  1  0  0  0  0
 12 15  2  0  0  0  0
 13 16  2  0  0  0  0
 13 17  1  0  0  0  0
 14 37  1  0  0  0  0
 14 38  1  0  0  0  0
 15 18  1  0  0  0  0
 15 19  1  0  0  0  0
 16 20  1  0  0  0  0
 16 21  1  0  0  0  0
 18 20  2  0  0  0  0
 18 40  1  0  0  0  0
 19 22  2  0  0  0  0
 19 23  1  0  0  0  0
 20 41  1  0  0  0  0
 22 25  1  0  0  0  0
 23 26  2  0  0  0  0
 23 42  1  0  0  0  0
 24 28  2  0  0  0  0
 24 29  1  0  0  0  0
 25 27  2  0  0  0  0
 25 44  1  0  0  0  0
 26 27  1  0  0  0  0
 26 45  1  0  0  0  0
 28 46  1  0  0  0  0
 29 47  1  0  0  0  0
 29 48  1  0  0  0  0
 29 49  1  0  0  0  0
 31 32  2  0  0  0  0
 31 33  1  0  0  0  0
 32 34  1  0  0  0  0
 33 35  2  0  0  0  0
 34 36  2  0  0  0  0
 34 52  1  0  0  0  0
 35 36  1  0  0  0  0
 35 53  1  0  0  0  0
M  END
> <PUBCHEM_COMPOUND_CID>
118480924

> <PUBCHEM_COMPOUND_CANONICALIZED>
1

> <PUBCHEM_CACTVS_COMPLEXITY>
811

> <PUBCHEM_CACTVS_HBOND_ACCEPTOR>
7

> <PUBCHEM_CACTVS_HBOND_DONOR>
4

> <PUBCHEM_CACTVS_ROTATABLE_BOND>
4

> <PUBCHEM_CACTVS_SUBSKEYS>
AAADceB7scAAAAAAAAAAAAAAAAAAAWLAAAAwYMAAAAAAAFgB1AAAHwAQAAAADAjBnww/0JbJkACoAzd3dACCgC21EqAJ2aE4dNiIaLLAnZGUIQholgLIyScciMCOyAACAAAQAACQAAQAACAAAAAAAAAAAA==

> <PUBCHEM_IUPAC_OPENEYE_NAME>
1-[3-fluoro-4-[7-(5-methyl-1H-imidazol-2-yl)-1-oxo-isoindolin-4-yl]phenyl]-3-(2,4,6-trifluorophenyl)urea

> <PUBCHEM_IUPAC_CAS_NAME>
1-[3-fluoro-4-[7-(5-methyl-1H-imidazol-2-yl)-1-oxo-2,3-dihydroisoindol-4-yl]phenyl]-3-(2,4,6-trifluorophenyl)urea

> <PUBCHEM_IUPAC_NAME_MARKUP>
1-[3-fluoro-4-[7-(5-methyl-1<I>H</I>-imidazol-2-yl)-1-oxo-2,3-dihydroisoindol-4-yl]phenyl]-3-(2,4,6-trifluorophenyl)urea

> <PUBCHEM_IUPAC_NAME>
1-[3-fluoro-4-[7-(5-methyl-1H-imidazol-2-yl)-1-oxo-2,3-dihydroisoindol-4-yl]phenyl]-3-(2,4,6-trifluorophenyl)urea

> <PUBCHEM_IUPAC_SYSTEMATIC_NAME>
1-[3-fluoranyl-4-[7-(5-methyl-1H-imidazol-2-yl)-1-oxidanylidene-2,3-dihydroisoindol-4-yl]phenyl]-3-[2,4,6-tris(fluoranyl)phenyl]urea

> <PUBCHEM_IUPAC_TRADITIONAL_NAME>
1-[3-fluoro-4-[1-keto-7-(5-methyl-1H-imidazol-2-yl)isoindolin-4-yl]phenyl]-3-(2,4,6-trifluorophenyl)urea

> <PUBCHEM_IUPAC_INCHI>
InChI=1S/C25H17F4N5O2/c1-11-9-30-23(32-11)16-5-4-14(17-10-31-24(35)21(16)17)15-3-2-13(8-18(15)27)33-25(36)34-22-19(28)6-12(26)7-20(22)29/h2-9H,10H2,1H3,(H,30,32)(H,31,35)(H2,33,34,36)

> <PUBCHEM_IUPAC_INCHIKEY>
MWHHJYUHCZWSLS-UHFFFAOYSA-N

> <PUBCHEM_XLOGP3_AA>
3.6

> <PUBCHEM_EXACT_MASS>
495.13183745

> <PUBCHEM_MOLECULAR_FORMULA>
C25H17F4N5O2

> <PUBCHEM_MOLECULAR_WEIGHT>
495.4

> <PUBCHEM_OPENEYE_CAN_SMILES>
CC1=CN=C(N1)C2=C3C(=C(C=C2)C4=C(C=C(C=C4)NC(=O)NC5=C(C=C(C=C5F)F)F)F)CNC3=O

> <PUBCHEM_OPENEYE_ISO_SMILES>
CC1=CN=C(N1)C2=C3C(=C(C=C2)C4=C(C=C(C=C4)NC(=O)NC5=C(C=C(C=C5F)F)F)F)CNC3=O

> <PUBCHEM_CACTVS_TPSA>
98.9

> <PUBCHEM_MONOISOTOPIC_WEIGHT>
495.13183745

> <PUBCHEM_TOTAL_CHARGE>
0

> <PUBCHEM_HEAVY_ATOM_COUNT>
36

> <PUBCHEM_ATOM_DEF_STEREO_COUNT>
0

> <PUBCHEM_ATOM_UDEF_STEREO_COUNT>
0

> <PUBCHEM_BOND_DEF_STEREO_COUNT>
0

> <PUBCHEM_BOND_UDEF_STEREO_COUNT>
0

> <PUBCHEM_ISOTOPIC_ATOM_COUNT>
0

> <PUBCHEM_COMPONENT_COUNT>
1

> <PUBCHEM_CACTVS_TAUTO_COUNT>
-1

> <PUBCHEM_COORDINATE_TYPE>
1
5
255

> <PUBCHEM_BONDANNOTATIONS>
12  13  8
12  15  8
13  16  8
15  18  8
16  20  8
18  20  8
19  22  8
19  23  8
22  25  8
23  26  8
24  28  8
25  27  8
26  27  8
31  32  8
31  33  8
32  34  8
33  35  8
34  36  8
35  36  8
8  21  8
8  24  8
9  21  8
9  28  8

$$$$
25115967
  -OEChem-11282412102D

 47 50  0     1  0  0  0  0  0999 V2000
    2.0000    0.0092    0.0000 F   0  0  0  0  0  0  0  0  0  0  0  0
    9.8805   -1.8156    0.0000 O   0  0  0  0  0  0  0  0  0  0  0  0
    9.8744    1.7045    0.0000 N   0  0  0  0  0  0  0  0  0  0  0  0
    6.3301    1.5092    0.0000 N   0  0  0  0  0  0  0  0  0  0  0  0
    8.0622    1.5092    0.0000 N   0  0  0  0  0  0  0  0  0  0  0  0
    9.8744    3.3140    0.0000 N   0  0  0  0  0  0  0  0  0  0  0  0
   11.1367    0.4466    0.0000 N   0  0  0  0  0  0  0  0  0  0  0  0
   11.1384   -0.5534    0.0000 N   0  0  0  0  0  0  0  0  0  0  0  0
    4.5981    0.5092    0.0000 N   0  0  0  0  0  0  0  0  0  0  0  0
    3.7320    2.0092    0.0000 N   0  0  0  0  0  0  0  0  0  0  0  0
    8.9282    2.0092    0.0000 C   0  0  0  0  0  0  0  0  0  0  0  0
    5.4641    2.0092    0.0000 C   0  0  1  0  0  0  0  0  0  0  0  0
    8.9282    3.0092    0.0000 C   0  0  0  0  0  0  0  0  0  0  0  0
   10.1851    0.7540    0.0000 C   0  0  0  0  0  0  0  0  0  0  0  0
    7.1962    2.0092    0.0000 C   0  0  0  0  0  0  0  0  0  0  0  0
   10.4580    2.5092    0.0000 C   0  0  0  0  0  0  0  0  0  0  0  0
    8.0622    3.5092    0.0000 C   0  0  0  0  0  0  0  0  0  0  0  0
    7.1962    3.0092    0.0000 C   0  0  0  0  0  0  0  0  0  0  0  0
    9.5987   -0.0561    0.0000 C   0  0  0  0  0  0  0  0  0  0  0  0
    5.4641    3.0092    0.0000 C   0  0  0  0  0  0  0  0  0  0  0  0
    4.5981    1.5092    0.0000 C   0  0  0  0  0  0  0  0  0  0  0  0
   10.1879   -0.8641    0.0000 C   0  0  0  0  0  0  0  0  0  0  0  0
   10.5509   -2.5576    0.0000 C   0  0  0  0  0  0  0  0  0  0  0  0
   10.2436   -3.5092    0.0000 C   0  0  0  0  0  0  0  0  0  0  0  0
   11.5287   -2.3480    0.0000 C   0  0  0  0  0  0  0  0  0  0  0  0
    3.7320    0.0092    0.0000 C   0  0  0  0  0  0  0  0  0  0  0  0
    2.8660    1.5092    0.0000 C   0  0  0  0  0  0  0  0  0  0  0  0
    2.8660    0.5092    0.0000 C   0  0  0  0  0  0  0  0  0  0  0  0
    5.4641    1.3892    0.0000 H   0  0  0  0  0  0  0  0  0  0  0  0
    6.3301    0.8892    0.0000 H   0  0  0  0  0  0  0  0  0  0  0  0
   11.0780    2.5092    0.0000 H   0  0  0  0  0  0  0  0  0  0  0  0
    8.0622    4.1292    0.0000 H   0  0  0  0  0  0  0  0  0  0  0  0
    6.6592    3.3192    0.0000 H   0  0  0  0  0  0  0  0  0  0  0  0
    8.9787   -0.0571    0.0000 H   0  0  0  0  0  0  0  0  0  0  0  0
    6.0841    3.0092    0.0000 H   0  0  0  0  0  0  0  0  0  0  0  0
    5.4641    3.6292    0.0000 H   0  0  0  0  0  0  0  0  0  0  0  0
    4.8441    3.0092    0.0000 H   0  0  0  0  0  0  0  0  0  0  0  0
    9.9447   -2.6876    0.0000 H   0  0  0  0  0  0  0  0  0  0  0  0
   11.6376    0.8119    0.0000 H   0  0  0  0  0  0  0  0  0  0  0  0
    9.6536   -3.3187    0.0000 H   0  0  0  0  0  0  0  0  0  0  0  0
   10.0530   -4.0992    0.0000 H   0  0  0  0  0  0  0  0  0  0  0  0
   10.8335   -3.6998    0.0000 H   0  0  0  0  0  0  0  0  0  0  0  0
   11.6587   -2.9543    0.0000 H   0  0  0  0  0  0  0  0  0  0  0  0
   12.1349   -2.2181    0.0000 H   0  0  0  0  0  0  0  0  0  0  0  0
   11.3988   -1.7418    0.0000 H   0  0  0  0  0  0  0  0  0  0  0  0
    3.7320   -0.6108    0.0000 H   0  0  0  0  0  0  0  0  0  0  0  0
    2.3291    1.8192    0.0000 H   0  0  0  0  0  0  0  0  0  0  0  0
  1 28  1  0  0  0  0
  2 22  1  0  0  0  0
  2 23  1  0  0  0  0
  3 11  1  0  0  0  0
  3 14  1  0  0  0  0
  3 16  1  0  0  0  0
 12  4  1  6  0  0  0
  4 15  1  0  0  0  0
  4 30  1  0  0  0  0
  5 11  1  0  0  0  0
  5 15  2  0  0  0  0
  6 13  1  0  0  0  0
  6 16  2  0  0  0  0
  7  8  1  0  0  0  0
  7 14  1  0  0  0  0
  7 39  1  0  0  0  0
  8 22  2  0  0  0  0
  9 21  1  0  0  0  0
  9 26  2  0  0  0  0
 10 21  2  0  0  0  0
 10 27  1  0  0  0  0
 11 13  2  0  0  0  0
 12 20  1  0  0  0  0
 12 21  1  0  0  0  0
 12 29  1  0  0  0  0
 13 17  1  0  0  0  0
 14 19  2  0  0  0  0
 15 18  1  0  0  0  0
 16 31  1  0  0  0  0
 17 18  2  0  0  0  0
 17 32  1  0  0  0  0
 18 33  1  0  0  0  0
 19 22  1  0  0  0  0
 19 34  1  0  0  0  0
 20 35  1  0  0  0  0
 20 36  1  0  0  0  0
 20 37  1  0  0  0  0
 23 24  1  0  0  0  0
 23 25  1  0  0  0  0
 23 38  1  0  0  0  0
 24 40  1  0  0  0  0
 24 41  1  0  0  0  0
 24 42  1  0  0  0  0
 25 43  1  0  0  0  0
 25 44  1  0  0  0  0
 25 45  1  0  0  0  0
 26 28  1  0  0  0  0
 26 46  1  0  0  0  0
 27 28  2  0  0  0  0
 27 47  1  0  0  0  0
M  END
> <PUBCHEM_COMPOUND_CID>
25115967

> <PUBCHEM_COMPOUND_CANONICALIZED>
1

> <PUBCHEM_CACTVS_COMPLEXITY>
506

> <PUBCHEM_CACTVS_HBOND_ACCEPTOR>
8

> <PUBCHEM_CACTVS_HBOND_DONOR>
2

> <PUBCHEM_CACTVS_ROTATABLE_BOND>
6

> <PUBCHEM_CACTVS_SUBSKEYS>
AAADceB74QAAAAAAAAAAAAAAAAAAAWLAAAAsWAAAAAAAAFgB/gAAHwAYAAAACDzhlw4/9L/vFACiATZnZACSjC+xMqAd+aA+fJiMbOLE+dmerCjqmArI6CYQAAAAAAAAAAAAAAAAAAAAAAAAAAAAAAAAAA==

> <PUBCHEM_IUPAC_OPENEYE_NAME>
N-[(1S)-1-(5-fluoropyrimidin-2-yl)ethyl]-3-(3-isopropoxy-1H-pyrazol-5-yl)imidazo[4,5-b]pyridin-5-amine

> <PUBCHEM_IUPAC_CAS_NAME>
N-[(1S)-1-(5-fluoro-2-pyrimidinyl)ethyl]-3-(3-propan-2-yloxy-1H-pyrazol-5-yl)-5-imidazo[4,5-b]pyridinamine

> <PUBCHEM_IUPAC_NAME_MARKUP>
<I>N</I>-[(1<I>S</I>)-1-(5-fluoropyrimidin-2-yl)ethyl]-3-(3-propan-2-yloxy-1<I>H</I>-pyrazol-5-yl)imidazo[4,5-b]pyridin-5-amine

> <PUBCHEM_IUPAC_NAME>
N-[(1S)-1-(5-fluoropyrimidin-2-yl)ethyl]-3-(3-propan-2-yloxy-1H-pyrazol-5-yl)imidazo[4,5-b]pyridin-5-amine

> <PUBCHEM_IUPAC_SYSTEMATIC_NAME>
N-[(1S)-1-(5-fluoranylpyrimidin-2-yl)ethyl]-3-(3-propan-2-yloxy-1H-pyrazol-5-yl)imidazo[4,5-b]pyridin-5-amine

> <PUBCHEM_IUPAC_TRADITIONAL_NAME>
[(1S)-1-(5-fluoropyrimidin-2-yl)ethyl]-[3-(3-isopropoxy-1H-pyrazol-5-yl)imidazo[4,5-b]pyridin-5-yl]amine

> <PUBCHEM_IUPAC_INCHI>
InChI=1S/C18H19FN8O/c1-10(2)28-16-6-15(25-26-16)27-9-22-13-4-5-14(24-18(13)27)23-11(3)17-20-7-12(19)8-21-17/h4-11H,1-3H3,(H,23,24)(H,25,26)/t11-/m0/s1

> <PUBCHEM_IUPAC_INCHIKEY>
AYOOGWWGECJQPI-NSHDSACASA-N

> <PUBCHEM_XLOGP3_AA>
2.7

> <PUBCHEM_EXACT_MASS>
382.16658542

> <PUBCHEM_MOLECULAR_FORMULA>
C18H19FN8O

> <PUBCHEM_MOLECULAR_WEIGHT>
382.4

> <PUBCHEM_OPENEYE_CAN_SMILES>
CC(C)OC1=NNC(=C1)N2C=NC3=C2N=C(C=C3)NC(C)C4=NC=C(C=N4)F

> <PUBCHEM_OPENEYE_ISO_SMILES>
C[C@@H](C1=NC=C(C=N1)F)NC2=NC3=C(C=C2)N=CN3C4=CC(=NN4)OC(C)C

> <PUBCHEM_CACTVS_TPSA>
106

> <PUBCHEM_MONOISOTOPIC_WEIGHT>
382.16658542

> <PUBCHEM_TOTAL_CHARGE>
0

> <PUBCHEM_HEAVY_ATOM_COUNT>
28

> <PUBCHEM_ATOM_DEF_STEREO_COUNT>
1

> <PUBCHEM_ATOM_UDEF_STEREO_COUNT>
0

> <PUBCHEM_BOND_DEF_STEREO_COUNT>
0

> <PUBCHEM_BOND_UDEF_STEREO_COUNT>
0

> <PUBCHEM_ISOTOPIC_ATOM_COUNT>
0

> <PUBCHEM_COMPONENT_COUNT>
1

> <PUBCHEM_CACTVS_TAUTO_COUNT>
-1

> <PUBCHEM_COORDINATE_TYPE>
1
5
255

> <PUBCHEM_BONDANNOTATIONS>
10  21  8
10  27  8
11  13  8
13  17  8
14  19  8
15  18  8
17  18  8
19  22  8
26  28  8
27  28  8
3  11  8
3  16  8
12  4  6
5  11  8
5  15  8
6  13  8
6  16  8
7  14  8
7  8  8
8  22  8
9  21  8
9  26  8

$$$$
71475839
  -OEChem-11282412102D

 66 70  0     0  0  0  0  0  0999 V2000
    6.9205    5.5532    0.0000 F   0  0  0  0  0  0  0  0  0  0  0  0
    8.1817    6.1931    0.0000 F   0  0  0  0  0  0  0  0  0  0  0  0
    8.8216    4.9319    0.0000 F   0  0  0  0  0  0  0  0  0  0  0  0
    7.2962    0.6961    0.0000 O   0  0  0  0  0  0  0  0  0  0  0  0
    4.9355    4.6239    0.0000 N   0  0  0  0  0  0  0  0  0  0  0  0
    2.9785    4.2114    0.0000 N   0  0  0  0  0  0  0  0  0  0  0  0
    8.5854    1.8529    0.0000 N   0  0  0  0  0  0  0  0  0  0  0  0
    7.4216   -4.6931    0.0000 N   0  0  0  0  0  0  0  0  0  0  0  0
    8.9514   -5.1931    0.0000 N   0  0  0  0  0  0  0  0  0  0  0  0
    8.3678   -5.9978    0.0000 N   0  0  0  0  0  0  0  0  0  0  0  0
    4.2677    5.3682    0.0000 C   0  0  0  0  0  0  0  0  0  0  0  0
    4.6249    3.6734    0.0000 C   0  0  0  0  0  0  0  0  0  0  0  0
    3.2892    5.1620    0.0000 C   0  0  0  0  0  0  0  0  0  0  0  0
    3.6464    3.4671    0.0000 C   0  0  0  0  0  0  0  0  0  0  0  0
    5.9140    4.8301    0.0000 C   0  0  0  0  0  0  0  0  0  0  0  0
    6.5819    4.0858    0.0000 C   0  0  0  0  0  0  0  0  0  0  0  0
    2.0000    4.0052    0.0000 C   0  0  0  0  0  0  0  0  0  0  0  0
    7.5604    4.2920    0.0000 C   0  0  0  0  0  0  0  0  0  0  0  0
    6.2712    3.1353    0.0000 C   0  0  0  0  0  0  0  0  0  0  0  0
    8.2282    3.5477    0.0000 C   0  0  0  0  0  0  0  0  0  0  0  0
    6.9390    2.3910    0.0000 C   0  0  0  0  0  0  0  0  0  0  0  0
    7.9176    2.5972    0.0000 C   0  0  0  0  0  0  0  0  0  0  0  0
    7.8710    5.2425    0.0000 C   0  0  0  0  0  0  0  0  0  0  0  0
    8.2747    0.9024    0.0000 C   0  0  0  0  0  0  0  0  0  0  0  0
    8.9426    0.1581    0.0000 C   0  0  0  0  0  0  0  0  0  0  0  0
    8.6319   -0.7925    0.0000 C   0  0  0  0  0  0  0  0  0  0  0  0
    9.9211    0.3643    0.0000 C   0  0  0  0  0  0  0  0  0  0  0  0
    9.2998   -1.5368    0.0000 C   0  0  0  0  0  0  0  0  0  0  0  0
   10.2783   -1.3305    0.0000 C   0  0  0  0  0  0  0  0  0  0  0  0
   10.5889   -0.3800    0.0000 C   0  0  0  0  0  0  0  0  0  0  0  0
   10.9461   -2.0748    0.0000 C   0  0  0  0  0  0  0  0  0  0  0  0
    8.9891   -2.4873    0.0000 C   0  0  0  0  0  0  0  0  0  0  0  0
    8.3678   -4.3883    0.0000 C   0  0  0  0  0  0  0  0  0  0  0  0
    7.4216   -5.6931    0.0000 C   0  0  0  0  0  0  0  0  0  0  0  0
    6.5555   -4.1931    0.0000 C   0  0  0  0  0  0  0  0  0  0  0  0
    8.6784   -3.4378    0.0000 C   0  0  0  0  0  0  0  0  0  0  0  0
    6.5555   -6.1931    0.0000 C   0  0  0  0  0  0  0  0  0  0  0  0
    5.6895   -4.6931    0.0000 C   0  0  0  0  0  0  0  0  0  0  0  0
    5.6895   -5.6931    0.0000 C   0  0  0  0  0  0  0  0  0  0  0  0
    4.7940    5.6958    0.0000 H   0  0  0  0  0  0  0  0  0  0  0  0
    4.0364    5.9434    0.0000 H   0  0  0  0  0  0  0  0  0  0  0  0
    4.6454    3.0537    0.0000 H   0  0  0  0  0  0  0  0  0  0  0  0
    5.2387    3.5860    0.0000 H   0  0  0  0  0  0  0  0  0  0  0  0
    3.2686    5.7816    0.0000 H   0  0  0  0  0  0  0  0  0  0  0  0
    2.6754    5.2493    0.0000 H   0  0  0  0  0  0  0  0  0  0  0  0
    3.1200    3.1395    0.0000 H   0  0  0  0  0  0  0  0  0  0  0  0
    3.8776    2.8919    0.0000 H   0  0  0  0  0  0  0  0  0  0  0  0
    6.4404    5.1577    0.0000 H   0  0  0  0  0  0  0  0  0  0  0  0
    5.6828    5.4054    0.0000 H   0  0  0  0  0  0  0  0  0  0  0  0
    1.8721    4.6119    0.0000 H   0  0  0  0  0  0  0  0  0  0  0  0
    1.3933    3.8774    0.0000 H   0  0  0  0  0  0  0  0  0  0  0  0
    2.1279    3.3985    0.0000 H   0  0  0  0  0  0  0  0  0  0  0  0
    5.6645    3.0074    0.0000 H   0  0  0  0  0  0  0  0  0  0  0  0
    8.8349    3.6756    0.0000 H   0  0  0  0  0  0  0  0  0  0  0  0
    6.7464    1.8016    0.0000 H   0  0  0  0  0  0  0  0  0  0  0  0
    9.1921    1.9807    0.0000 H   0  0  0  0  0  0  0  0  0  0  0  0
    8.0252   -0.9203    0.0000 H   0  0  0  0  0  0  0  0  0  0  0  0
   10.1137    0.9536    0.0000 H   0  0  0  0  0  0  0  0  0  0  0  0
   11.1956   -0.2522    0.0000 H   0  0  0  0  0  0  0  0  0  0  0  0
   10.4846   -2.4889    0.0000 H   0  0  0  0  0  0  0  0  0  0  0  0
   11.3602   -2.5363    0.0000 H   0  0  0  0  0  0  0  0  0  0  0  0
   11.4076   -1.6608    0.0000 H   0  0  0  0  0  0  0  0  0  0  0  0
    6.5555   -3.5730    0.0000 H   0  0  0  0  0  0  0  0  0  0  0  0
    6.5555   -6.8130    0.0000 H   0  0  0  0  0  0  0  0  0  0  0  0
    5.1526   -4.3830    0.0000 H   0  0  0  0  0  0  0  0  0  0  0  0
    5.1526   -6.0030    0.0000 H   0  0  0  0  0  0  0  0  0  0  0  0
  1 23  1  0  0  0  0
  2 23  1  0  0  0  0
  3 23  1  0  0  0  0
  4 24  2  0  0  0  0
  5 11  1  0  0  0  0
  5 12  1  0  0  0  0
  5 15  1  0  0  0  0
  6 13  1  0  0  0  0
  6 14  1  0  0  0  0
  6 17  1  0  0  0  0
  7 22  1  0  0  0  0
  7 24  1  0  0  0  0
  7 56  1  0  0  0  0
  8 33  1  0  0  0  0
  8 34  1  0  0  0  0
  8 35  1  0  0  0  0
  9 10  1  0  0  0  0
  9 33  2  0  0  0  0
 10 34  2  0  0  0  0
 11 13  1  0  0  0  0
 11 40  1  0  0  0  0
 11 41  1  0  0  0  0
 12 14  1  0  0  0  0
 12 42  1  0  0  0  0
 12 43  1  0  0  0  0
 13 44  1  0  0  0  0
 13 45  1  0  0  0  0
 14 46  1  0  0  0  0
 14 47  1  0  0  0  0
 15 16  1  0  0  0  0
 15 48  1  0  0  0  0
 15 49  1  0  0  0  0
 16 18  2  0  0  0  0
 16 19  1  0  0  0  0
 17 50  1  0  0  0  0
 17 51  1  0  0  0  0
 17 52  1  0  0  0  0
 18 20  1  0  0  0  0
 18 23  1  0  0  0  0
 19 21  2  0  0  0  0
 19 53  1  0  0  0  0
 20 22  2  0  0  0  0
 20 54  1  0  0  0  0
 21 22  1  0  0  0  0
 21 55  1  0  0  0  0
 24 25  1  0  0  0  0
 25 26  2  0  0  0  0
 25 27  1  0  0  0  0
 26 28  1  0  0  0  0
 26 57  1  0  0  0  0
 27 30  2  0  0  0  0
 27 58  1  0  0  0  0
 28 29  2  0  0  0  0
 28 32  1  0  0  0  0
 29 30  1  0  0  0  0
 29 31  1  0  0  0  0
 30 59  1  0  0  0  0
 31 60  1  0  0  0  0
 31 61  1  0  0  0  0
 31 62  1  0  0  0  0
 32 36  3  0  0  0  0
 33 36  1  0  0  0  0
 34 37  1  0  0  0  0
 35 38  2  0  0  0  0
 35 63  1  0  0  0  0
 37 39  2  0  0  0  0
 37 64  1  0  0  0  0
 38 39  1  0  0  0  0
 38 65  1  0  0  0  0
 39 66  1  0  0  0  0
M  END
> <PUBCHEM_COMPOUND_CID>
71475839

> <PUBCHEM_COMPOUND_CANONICALIZED>
1

> <PUBCHEM_CACTVS_COMPLEXITY>
910

> <PUBCHEM_CACTVS_HBOND_ACCEPTOR>
8

> <PUBCHEM_CACTVS_HBOND_DONOR>
1

> <PUBCHEM_CACTVS_ROTATABLE_BOND>
6

> <PUBCHEM_CACTVS_SUBSKEYS>
AAADceB7oYAAAAAAAAAAAAAAAAAAAWAAAAA8eIEAAAAAAFgB9AAAHwAYAAAADAjBmxQ/8J/MGADqEjd3dAiShCs1AqAd2CE4ZNiIaPLAnZGUoQhgnALIyacYiMCOyAACQAAQAACQAASAACAAAAAAAAAAAA==

> <PUBCHEM_IUPAC_OPENEYE_NAME>
4-methyl-N-[4-[(4-methylpiperazin-1-yl)methyl]-3-(trifluoromethyl)phenyl]-3-[2-([1,2,4]triazolo[4,3-a]pyridin-3-yl)ethynyl]benzamide

> <PUBCHEM_IUPAC_CAS_NAME>
4-methyl-N-[4-[(4-methyl-1-piperazinyl)methyl]-3-(trifluoromethyl)phenyl]-3-[2-([1,2,4]triazolo[4,3-a]pyridin-3-yl)ethynyl]benzamide

> <PUBCHEM_IUPAC_NAME_MARKUP>
4-methyl-<I>N</I>-[4-[(4-methylpiperazin-1-yl)methyl]-3-(trifluoromethyl)phenyl]-3-[2-([1,2,4]triazolo[4,3-a]pyridin-3-yl)ethynyl]benzamide

> <PUBCHEM_IUPAC_NAME>
4-methyl-N-[4-[(4-methylpiperazin-1-yl)methyl]-3-(trifluoromethyl)phenyl]-3-[2-([1,2,4]triazolo[4,3-a]pyridin-3-yl)ethynyl]benzamide

> <PUBCHEM_IUPAC_SYSTEMATIC_NAME>
4-methyl-N-[4-[(4-methylpiperazin-1-yl)methyl]-3-(trifluoromethyl)phenyl]-3-[2-([1,2,4]triazolo[4,3-a]pyridin-3-yl)ethynyl]benzamide

> <PUBCHEM_IUPAC_TRADITIONAL_NAME>
4-methyl-N-[4-[(4-methylpiperazino)methyl]-3-(trifluoromethyl)phenyl]-3-[2-([1,2,4]triazolo[4,3-a]pyridin-3-yl)ethynyl]benzamide

> <PUBCHEM_IUPAC_INCHI>
InChI=1S/C29H27F3N6O/c1-20-6-7-22(17-21(20)9-11-27-35-34-26-5-3-4-12-38(26)27)28(39)33-24-10-8-23(25(18-24)29(30,31)32)19-37-15-13-36(2)14-16-37/h3-8,10,12,17-18H,13-16,19H2,1-2H3,(H,33,39)

> <PUBCHEM_IUPAC_INCHIKEY>
SLIVDYMORZGPLW-UHFFFAOYSA-N

> <PUBCHEM_XLOGP3_AA>
5

> <PUBCHEM_EXACT_MASS>
532.21984399

> <PUBCHEM_MOLECULAR_FORMULA>
C29H27F3N6O

> <PUBCHEM_MOLECULAR_WEIGHT>
532.6

> <PUBCHEM_OPENEYE_CAN_SMILES>
CC1=C(C=C(C=C1)C(=O)NC2=CC(=C(C=C2)CN3CCN(CC3)C)C(F)(F)F)C#CC4=NN=C5N4C=CC=C5

> <PUBCHEM_OPENEYE_ISO_SMILES>
CC1=C(C=C(C=C1)C(=O)NC2=CC(=C(C=C2)CN3CCN(CC3)C)C(F)(F)F)C#CC4=NN=C5N4C=CC=C5

> <PUBCHEM_CACTVS_TPSA>
65.8

> <PUBCHEM_MONOISOTOPIC_WEIGHT>
532.21984399

> <PUBCHEM_TOTAL_CHARGE>
0

> <PUBCHEM_HEAVY_ATOM_COUNT>
39

> <PUBCHEM_ATOM_DEF_STEREO_COUNT>
0

> <PUBCHEM_ATOM_UDEF_STEREO_COUNT>
0

> <PUBCHEM_BOND_DEF_STEREO_COUNT>
0

> <PUBCHEM_BOND_UDEF_STEREO_COUNT>
0

> <PUBCHEM_ISOTOPIC_ATOM_COUNT>
0

> <PUBCHEM_COMPONENT_COUNT>
1

> <PUBCHEM_CACTVS_TAUTO_COUNT>
-1

> <PUBCHEM_COORDINATE_TYPE>
1
5
255

> <PUBCHEM_BONDANNOTATIONS>
10  34  8
16  18  8
16  19  8
18  20  8
19  21  8
20  22  8
21  22  8
25  26  8
25  27  8
26  28  8
27  30  8
28  29  8
29  30  8
34  37  8
35  38  8
37  39  8
38  39  8
8  33  8
8  34  8
8  35  8
9  10  8
9  33  8

$$$$
11700696
  -OEChem-11282412102D

102105  0     0  0  0  0  0  0999 V2000
   15.7235    0.0000    0.0000 Cl  0  0  0  0  0  0  0  0  0  0  0  0
    1.4030   10.4191    0.0000 S   0  0  0  0  0  0  0  0  0  0  0  0
   11.1399   16.2182    0.0000 S   0  0  0  0  0  0  0  0  0  0  0  0
   17.4670    0.9799    0.0000 F   0  0  0  0  0  0  0  0  0  0  0  0
    9.6798    5.5544    0.0000 O   0  0  0  0  0  0  0  0  0  0  0  0
    1.4030   11.4191    0.0000 O   0  0  0  0  0  0  0  0  0  0  0  0
   11.1399   17.2182    0.0000 O   0  0  0  0  0  0  0  0  0  0  0  0
    2.4030   10.4191    0.0000 O   0  0  0  0  0  0  0  0  0  0  0  0
    0.4030   10.4191    0.0000 O   0  0  0  0  0  0  0  0  0  0  0  0
   12.1399   16.2182    0.0000 O   0  0  0  0  0  0  0  0  0  0  0  0
   10.1399   16.2182    0.0000 O   0  0  0  0  0  0  0  0  0  0  0  0
    7.9478    7.5544    0.0000 N   0  0  0  0  0  0  0  0  0  0  0  0
    6.2157    8.5544    0.0000 N   0  0  0  0  0  0  0  0  0  0  0  0
   10.5458    4.0544    0.0000 N   0  0  0  0  0  0  0  0  0  0  0  0
   14.0379    6.0891    0.0000 N   0  0  0  0  0  0  0  0  0  0  0  0
   14.0263    3.0198    0.0000 N   0  0  0  0  0  0  0  0  0  0  0  0
   14.9439    4.5336    0.0000 N   0  0  0  0  0  0  0  0  0  0  0  0
    8.8138    7.0544    0.0000 C   0  0  0  0  0  0  0  0  0  0  0  0
    7.9478    8.5544    0.0000 C   0  0  0  0  0  0  0  0  0  0  0  0
    7.0817    7.0544    0.0000 C   0  0  0  0  0  0  0  0  0  0  0  0
    7.0817    9.0544    0.0000 C   0  0  0  0  0  0  0  0  0  0  0  0
    6.2157    7.5544    0.0000 C   0  0  0  0  0  0  0  0  0  0  0  0
    9.3138    7.9204    0.0000 C   0  0  0  0  0  0  0  0  0  0  0  0
    8.3138    6.1884    0.0000 C   0  0  0  0  0  0  0  0  0  0  0  0
    5.3497    9.0544    0.0000 C   0  0  0  0  0  0  0  0  0  0  0  0
    9.6798    6.5544    0.0000 C   0  0  0  0  0  0  0  0  0  0  0  0
   10.5458    6.0544    0.0000 C   0  0  0  0  0  0  0  0  0  0  0  0
   11.4119    5.5544    0.0000 C   0  0  0  0  0  0  0  0  0  0  0  0
   11.4119    4.5544    0.0000 C   0  0  0  0  0  0  0  0  0  0  0  0
   12.2779    6.0544    0.0000 C   0  0  0  0  0  0  0  0  0  0  0  0
   13.1439    5.5544    0.0000 C   0  0  0  0  0  0  0  0  0  0  0  0
   12.2779    4.0544    0.0000 C   0  0  0  0  0  0  0  0  0  0  0  0
   13.1439    4.5544    0.0000 C   0  0  0  0  0  0  0  0  0  0  0  0
   14.0379    4.0198    0.0000 C   0  0  0  0  0  0  0  0  0  0  0  0
    9.6798    4.5544    0.0000 C   0  0  0  0  0  0  0  0  0  0  0  0
   14.9439    5.5752    0.0000 C   0  0  0  0  0  0  0  0  0  0  0  0
   14.8865    2.5098    0.0000 C   0  0  0  0  0  0  0  0  0  0  0  0
    8.8138    4.0544    0.0000 C   0  0  0  0  0  0  0  0  0  0  0  0
   14.8749    1.5099    0.0000 C   0  0  0  0  0  0  0  0  0  0  0  0
   15.7582    2.9998    0.0000 C   0  0  0  0  0  0  0  0  0  0  0  0
    8.8138    3.0544    0.0000 C   0  0  0  0  0  0  0  0  0  0  0  0
   15.7351    0.9999    0.0000 C   0  0  0  0  0  0  0  0  0  0  0  0
   16.6184    2.4898    0.0000 C   0  0  0  0  0  0  0  0  0  0  0  0
   16.6068    1.4899    0.0000 C   0  0  0  0  0  0  0  0  0  0  0  0
    1.4030    9.4191    0.0000 C   0  0  0  0  0  0  0  0  0  0  0  0
   11.1399   15.2182    0.0000 C   0  0  0  0  0  0  0  0  0  0  0  0
    1.4030    7.4191    0.0000 C   0  0  0  0  0  0  0  0  0  0  0  0
   11.1399   13.2182    0.0000 C   0  0  0  0  0  0  0  0  0  0  0  0
    0.5369    8.9191    0.0000 C   0  0  0  0  0  0  0  0  0  0  0  0
   12.0059   14.7182    0.0000 C   0  0  0  0  0  0  0  0  0  0  0  0
    2.2690    8.9191    0.0000 C   0  0  0  0  0  0  0  0  0  0  0  0
   10.2739   14.7182    0.0000 C   0  0  0  0  0  0  0  0  0  0  0  0
    0.5369    7.9191    0.0000 C   0  0  0  0  0  0  0  0  0  0  0  0
   12.0059   13.7182    0.0000 C   0  0  0  0  0  0  0  0  0  0  0  0
    2.2690    7.9191    0.0000 C   0  0  0  0  0  0  0  0  0  0  0  0
   10.2739   13.7182    0.0000 C   0  0  0  0  0  0  0  0  0  0  0  0
    1.4030    6.4191    0.0000 C   0  0  0  0  0  0  0  0  0  0  0  0
   11.1399   12.2182    0.0000 C   0  0  0  0  0  0  0  0  0  0  0  0
    8.5583    8.4468    0.0000 H   0  0  0  0  0  0  0  0  0  0  0  0
    8.1598    9.1370    0.0000 H   0  0  0  0  0  0  0  0  0  0  0  0
    6.6832    6.5795    0.0000 H   0  0  0  0  0  0  0  0  0  0  0  0
    7.4803    6.5795    0.0000 H   0  0  0  0  0  0  0  0  0  0  0  0
    7.4803    9.5294    0.0000 H   0  0  0  0  0  0  0  0  0  0  0  0
    6.6832    9.5294    0.0000 H   0  0  0  0  0  0  0  0  0  0  0  0
    5.6051    7.6621    0.0000 H   0  0  0  0  0  0  0  0  0  0  0  0
    6.0037    6.9718    0.0000 H   0  0  0  0  0  0  0  0  0  0  0  0
    9.8507    7.6104    0.0000 H   0  0  0  0  0  0  0  0  0  0  0  0
    9.6238    8.4574    0.0000 H   0  0  0  0  0  0  0  0  0  0  0  0
    8.7768    8.2304    0.0000 H   0  0  0  0  0  0  0  0  0  0  0  0
    7.7768    6.4984    0.0000 H   0  0  0  0  0  0  0  0  0  0  0  0
    8.0038    5.6515    0.0000 H   0  0  0  0  0  0  0  0  0  0  0  0
    8.8507    5.8784    0.0000 H   0  0  0  0  0  0  0  0  0  0  0  0
    5.6597    9.5914    0.0000 H   0  0  0  0  0  0  0  0  0  0  0  0
    4.8128    9.3644    0.0000 H   0  0  0  0  0  0  0  0  0  0  0  0
    5.0397    8.5175    0.0000 H   0  0  0  0  0  0  0  0  0  0  0  0
   12.2779    6.6744    0.0000 H   0  0  0  0  0  0  0  0  0  0  0  0
   12.2779    3.4344    0.0000 H   0  0  0  0  0  0  0  0  0  0  0  0
   10.5458    3.4344    0.0000 H   0  0  0  0  0  0  0  0  0  0  0  0
   13.4858    2.7161    0.0000 H   0  0  0  0  0  0  0  0  0  0  0  0
   15.4797    5.8873    0.0000 H   0  0  0  0  0  0  0  0  0  0  0  0
    8.2768    4.3644    0.0000 H   0  0  0  0  0  0  0  0  0  0  0  0
   14.3344    1.2061    0.0000 H   0  0  0  0  0  0  0  0  0  0  0  0
   15.7654    3.6198    0.0000 H   0  0  0  0  0  0  0  0  0  0  0  0
    8.2768    2.7444    0.0000 H   0  0  0  0  0  0  0  0  0  0  0  0
    9.3507    2.7444    0.0000 H   0  0  0  0  0  0  0  0  0  0  0  0
   17.1589    2.7936    0.0000 H   0  0  0  0  0  0  0  0  0  0  0  0
    0.0000    9.2291    0.0000 H   0  0  0  0  0  0  0  0  0  0  0  0
   12.5429   15.0282    0.0000 H   0  0  0  0  0  0  0  0  0  0  0  0
    2.8059    9.2291    0.0000 H   0  0  0  0  0  0  0  0  0  0  0  0
    9.7369   15.0282    0.0000 H   0  0  0  0  0  0  0  0  0  0  0  0
    0.0000    7.6091    0.0000 H   0  0  0  0  0  0  0  0  0  0  0  0
   12.5429   13.4082    0.0000 H   0  0  0  0  0  0  0  0  0  0  0  0
    2.8059    7.6091    0.0000 H   0  0  0  0  0  0  0  0  0  0  0  0
    9.7369   13.4082    0.0000 H   0  0  0  0  0  0  0  0  0  0  0  0
    0.7830    6.4191    0.0000 H   0  0  0  0  0  0  0  0  0  0  0  0
    1.4030    5.7991    0.0000 H   0  0  0  0  0  0  0  0  0  0  0  0
    2.0230    6.4191    0.0000 H   0  0  0  0  0  0  0  0  0  0  0  0
   10.5199   12.2182    0.0000 H   0  0  0  0  0  0  0  0  0  0  0  0
   11.1399   11.5982    0.0000 H   0  0  0  0  0  0  0  0  0  0  0  0
   11.7599   12.2182    0.0000 H   0  0  0  0  0  0  0  0  0  0  0  0
    1.9399   11.7291    0.0000 H   0  0  0  0  0  0  0  0  0  0  0  0
   11.6768   17.5282    0.0000 H   0  0  0  0  0  0  0  0  0  0  0  0
  1 42  1  0  0  0  0
  2  6  1  0  0  0  0
  2  8  2  0  0  0  0
  2  9  2  0  0  0  0
  2 45  1  0  0  0  0
  3  7  1  0  0  0  0
  3 10  2  0  0  0  0
  3 11  2  0  0  0  0
  3 46  1  0  0  0  0
  4 44  1  0  0  0  0
  5 35  2  0  0  0  0
  6101  1  0  0  0  0
  7102  1  0  0  0  0
 12 18  1  0  0  0  0
 12 19  1  0  0  0  0
 12 20  1  0  0  0  0
 13 21  1  0  0  0  0
 13 22  1  0  0  0  0
 13 25  1  0  0  0  0
 14 29  1  0  0  0  0
 14 35  1  0  0  0  0
 14 78  1  0  0  0  0
 15 31  1  0  0  0  0
 15 36  2  0  0  0  0
 16 34  1  0  0  0  0
 16 37  1  0  0  0  0
 16 79  1  0  0  0  0
 17 34  2  0  0  0  0
 17 36  1  0  0  0  0
 18 23  1  0  0  0  0
 18 24  1  0  0  0  0
 18 26  1  0  0  0  0
 19 21  1  0  0  0  0
 19 59  1  0  0  0  0
 19 60  1  0  0  0  0
 20 22  1  0  0  0  0
 20 61  1  0  0  0  0
 20 62  1  0  0  0  0
 21 63  1  0  0  0  0
 21 64  1  0  0  0  0
 22 65  1  0  0  0  0
 22 66  1  0  0  0  0
 23 67  1  0  0  0  0
 23 68  1  0  0  0  0
 23 69  1  0  0  0  0
 24 70  1  0  0  0  0
 24 71  1  0  0  0  0
 24 72  1  0  0  0  0
 25 73  1  0  0  0  0
 25 74  1  0  0  0  0
 25 75  1  0  0  0  0
 26 27  3  0  0  0  0
 27 28  1  0  0  0  0
 28 29  1  0  0  0  0
 28 30  2  0  0  0  0
 29 32  2  0  0  0  0
 30 31  1  0  0  0  0
 30 76  1  0  0  0  0
 31 33  2  0  0  0  0
 32 33  1  0  0  0  0
 32 77  1  0  0  0  0
 33 34  1  0  0  0  0
 35 38  1  0  0  0  0
 36 80  1  0  0  0  0
 37 39  2  0  0  0  0
 37 40  1  0  0  0  0
 38 41  2  0  0  0  0
 38 81  1  0  0  0  0
 39 42  1  0  0  0  0
 39 82  1  0  0  0  0
 40 43  2  0  0  0  0
 40 83  1  0  0  0  0
 41 84  1  0  0  0  0
 41 85  1  0  0  0  0
 42 44  2  0  0  0  0
 43 44  1  0  0  0  0
 43 86  1  0  0  0  0
 45 49  2  0  0  0  0
 45 51  1  0  0  0  0
 46 50  2  0  0  0  0
 46 52  1  0  0  0  0
 47 53  2  0  0  0  0
 47 55  1  0  0  0  0
 47 57  1  0  0  0  0
 48 54  2  0  0  0  0
 48 56  1  0  0  0  0
 48 58  1  0  0  0  0
 49 53  1  0  0  0  0
 49 87  1  0  0  0  0
 50 54  1  0  0  0  0
 50 88  1  0  0  0  0
 51 55  2  0  0  0  0
 51 89  1  0  0  0  0
 52 56  2  0  0  0  0
 52 90  1  0  0  0  0
 53 91  1  0  0  0  0
 54 92  1  0  0  0  0
 55 93  1  0  0  0  0
 56 94  1  0  0  0  0
 57 95  1  0  0  0  0
 57 96  1  0  0  0  0
 57 97  1  0  0  0  0
 58 98  1  0  0  0  0
 58 99  1  0  0  0  0
 58100  1  0  0  0  0
M  END
> <PUBCHEM_COMPOUND_CID>
11700696

> <PUBCHEM_COMPOUND_CANONICALIZED>
1

> <PUBCHEM_CACTVS_COMPLEXITY>
1060

> <PUBCHEM_CACTVS_HBOND_ACCEPTOR>
13

> <PUBCHEM_CACTVS_HBOND_DONOR>
4

> <PUBCHEM_CACTVS_ROTATABLE_BOND>
9

> <PUBCHEM_CACTVS_SUBSKEYS>
AAADcfB/uQBkAAAAAAAAAAAAAAAAAAAAAAA8eMGCAAAAAACx9AAAHwYQCAAADIrB3iw38ffIEILoEydzdHjCgGkxB6AJ2Dg4ZtiIaOLB29GUJAholALIyKcQgAAOUACAQAICAACgAQCABAQAAAAAAAAAAA==

> <PUBCHEM_IUPAC_OPENEYE_NAME>
N-[4-(3-chloro-4-fluoro-anilino)-7-[3-methyl-3-(4-methylpiperazin-1-yl)but-1-ynyl]quinazolin-6-yl]prop-2-enamide;4-methylbenzenesulfonic acid

> <PUBCHEM_IUPAC_CAS_NAME>
N-[4-(3-chloro-4-fluoroanilino)-7-[3-methyl-3-(4-methyl-1-piperazinyl)but-1-ynyl]-6-quinazolinyl]-2-propenamide;4-methylbenzenesulfonic acid

> <PUBCHEM_IUPAC_NAME_MARKUP>
<I>N</I>-[4-(3-chloro-4-fluoroanilino)-7-[3-methyl-3-(4-methylpiperazin-1-yl)but-1-ynyl]quinazolin-6-yl]prop-2-enamide;4-methylbenzenesulfonic acid

> <PUBCHEM_IUPAC_NAME>
N-[4-(3-chloro-4-fluoroanilino)-7-[3-methyl-3-(4-methylpiperazin-1-yl)but-1-ynyl]quinazolin-6-yl]prop-2-enamide;4-methylbenzenesulfonic acid

> <PUBCHEM_IUPAC_SYSTEMATIC_NAME>
N-[4-[(3-chloranyl-4-fluoranyl-phenyl)amino]-7-[3-methyl-3-(4-methylpiperazin-1-yl)but-1-ynyl]quinazolin-6-yl]prop-2-enamide;4-methylbenzenesulfonic acid

> <PUBCHEM_IUPAC_TRADITIONAL_NAME>
N-[4-(3-chloro-4-fluoro-anilino)-7-[3-methyl-3-(4-methylpiperazino)but-1-ynyl]quinazolin-6-yl]acrylamide;tosylic acid

> <PUBCHEM_IUPAC_INCHI>
InChI=1S/C27H28ClFN6O.2C7H8O3S/c1-5-25(36)33-23-16-20-24(30-17-31-26(20)32-19-6-7-22(29)21(28)15-19)14-18(23)8-9-27(2,3)35-12-10-34(4)11-13-35;2*1-6-2-4-7(5-3-6)11(8,9)10/h5-7,14-17H,1,10-13H2,2-4H3,(H,33,36)(H,30,31,32);2*2-5H,1H3,(H,8,9,10)

> <PUBCHEM_IUPAC_INCHIKEY>
GTWJVFFZCKODEV-UHFFFAOYSA-N

> <PUBCHEM_EXACT_MASS>
850.2385460

> <PUBCHEM_MOLECULAR_FORMULA>
C41H44ClFN6O7S2

> <PUBCHEM_MOLECULAR_WEIGHT>
851.4

> <PUBCHEM_OPENEYE_CAN_SMILES>
CC1=CC=C(C=C1)S(=O)(=O)O.CC1=CC=C(C=C1)S(=O)(=O)O.CC(C)(C#CC1=CC2=C(C=C1NC(=O)C=C)C(=NC=N2)NC3=CC(=C(C=C3)F)Cl)N4CCN(CC4)C

> <PUBCHEM_OPENEYE_ISO_SMILES>
CC1=CC=C(C=C1)S(=O)(=O)O.CC1=CC=C(C=C1)S(=O)(=O)O.CC(C)(C#CC1=CC2=C(C=C1NC(=O)C=C)C(=NC=N2)NC3=CC(=C(C=C3)F)Cl)N4CCN(CC4)C

> <PUBCHEM_CACTVS_TPSA>
199

> <PUBCHEM_MONOISOTOPIC_WEIGHT>
850.2385460

> <PUBCHEM_TOTAL_CHARGE>
0

> <PUBCHEM_HEAVY_ATOM_COUNT>
58

> <PUBCHEM_ATOM_DEF_STEREO_COUNT>
0

> <PUBCHEM_ATOM_UDEF_STEREO_COUNT>
0

> <PUBCHEM_BOND_DEF_STEREO_COUNT>
0

> <PUBCHEM_BOND_UDEF_STEREO_COUNT>
0

> <PUBCHEM_ISOTOPIC_ATOM_COUNT>
0

> <PUBCHEM_COMPONENT_COUNT>
3

> <PUBCHEM_CACTVS_TAUTO_COUNT>
-1

> <PUBCHEM_COORDINATE_TYPE>
1
5
255

> <PUBCHEM_BONDANNOTATIONS>
15  31  8
15  36  8
17  34  8
17  36  8
28  29  8
28  30  8
29  32  8
30  31  8
31  33  8
32  33  8
33  34  8
37  39  8
37  40  8
39  42  8
40  43  8
42  44  8
43  44  8
45  49  8
45  51  8
46  50  8
46  52  8
47  53  8
47  55  8
48  54  8
48  56  8
49  53  8
50  54  8
51  55  8
52  56  8

$$$$
46214930
  -OEChem-11282412102D

 52 54  0     0  0  0  0  0  0999 V2000
    7.9673   -0.0761    0.0000 Cl  0  0  0  0  0  0  0  0  0  0  0  0
    7.1013    2.4239    0.0000 O   0  0  0  0  0  0  0  0  0  0  0  0
    7.1013    4.4239    0.0000 O   0  0  0  0  0  0  0  0  0  0  0  0
    3.6942   -3.6639    0.0000 N   0  0  0  0  0  0  0  0  0  0  0  0
    4.0032   -4.6149    0.0000 N   0  0  0  0  0  0  0  0  0  0  0  0
    4.5032   -2.0761    0.0000 N   0  0  0  0  0  0  0  0  0  0  0  0
    6.2353    0.9239    0.0000 N   0  0  0  0  0  0  0  0  0  0  0  0
    6.2353   -2.0761    0.0000 N   0  0  0  0  0  0  0  0  0  0  0  0
    6.2353    3.9239    0.0000 N   0  0  0  0  0  0  0  0  0  0  0  0
    2.7431   -3.3548    0.0000 C   0  0  0  0  0  0  0  0  0  0  0  0
    4.5032   -3.0761    0.0000 C   0  0  0  0  0  0  0  0  0  0  0  0
    2.0000   -4.0240    0.0000 C   0  0  0  0  0  0  0  0  0  0  0  0
    2.5352   -2.3767    0.0000 C   0  0  0  0  0  0  0  0  0  0  0  0
    5.3122   -3.6639    0.0000 C   0  0  0  0  0  0  0  0  0  0  0  0
    5.0032   -4.6149    0.0000 C   0  0  0  0  0  0  0  0  0  0  0  0
    5.3692   -1.5761    0.0000 C   0  0  0  0  0  0  0  0  0  0  0  0
    5.5910   -5.4239    0.0000 C   0  0  0  0  0  0  0  0  0  0  0  0
    5.3692   -0.5761    0.0000 C   0  0  0  0  0  0  0  0  0  0  0  0
    6.2353   -0.0761    0.0000 C   0  0  0  0  0  0  0  0  0  0  0  0
    5.3692    1.4239    0.0000 C   0  0  0  0  0  0  0  0  0  0  0  0
    7.1013   -0.5761    0.0000 C   0  0  0  0  0  0  0  0  0  0  0  0
    5.3692    2.4239    0.0000 C   0  0  0  0  0  0  0  0  0  0  0  0
    7.1013   -1.5761    0.0000 C   0  0  0  0  0  0  0  0  0  0  0  0
    4.5032    0.9239    0.0000 C   0  0  0  0  0  0  0  0  0  0  0  0
    4.5032    2.9239    0.0000 C   0  0  0  0  0  0  0  0  0  0  0  0
    3.6372    1.4239    0.0000 C   0  0  0  0  0  0  0  0  0  0  0  0
    3.6372    2.4239    0.0000 C   0  0  0  0  0  0  0  0  0  0  0  0
    6.2353    2.9239    0.0000 C   0  0  0  0  0  0  0  0  0  0  0  0
    7.1013    5.4239    0.0000 C   0  0  0  0  0  0  0  0  0  0  0  0
    2.1535   -3.1632    0.0000 H   0  0  0  0  0  0  0  0  0  0  0  0
    1.5851   -3.5632    0.0000 H   0  0  0  0  0  0  0  0  0  0  0  0
    1.5392   -4.4388    0.0000 H   0  0  0  0  0  0  0  0  0  0  0  0
    2.4149   -4.4847    0.0000 H   0  0  0  0  0  0  0  0  0  0  0  0
    3.1417   -2.2478    0.0000 H   0  0  0  0  0  0  0  0  0  0  0  0
    2.4063   -1.7702    0.0000 H   0  0  0  0  0  0  0  0  0  0  0  0
    1.9288   -2.5056    0.0000 H   0  0  0  0  0  0  0  0  0  0  0  0
    5.9019   -3.4723    0.0000 H   0  0  0  0  0  0  0  0  0  0  0  0
    3.9663   -1.7661    0.0000 H   0  0  0  0  0  0  0  0  0  0  0  0
    5.0894   -5.7884    0.0000 H   0  0  0  0  0  0  0  0  0  0  0  0
    5.9554   -5.9255    0.0000 H   0  0  0  0  0  0  0  0  0  0  0  0
    6.0926   -5.0595    0.0000 H   0  0  0  0  0  0  0  0  0  0  0  0
    4.8323   -0.2661    0.0000 H   0  0  0  0  0  0  0  0  0  0  0  0
    6.7722    1.2339    0.0000 H   0  0  0  0  0  0  0  0  0  0  0  0
    7.6382   -1.8861    0.0000 H   0  0  0  0  0  0  0  0  0  0  0  0
    4.5032    0.3039    0.0000 H   0  0  0  0  0  0  0  0  0  0  0  0
    4.5032    3.5439    0.0000 H   0  0  0  0  0  0  0  0  0  0  0  0
    3.1003    1.1139    0.0000 H   0  0  0  0  0  0  0  0  0  0  0  0
    3.1003    2.7339    0.0000 H   0  0  0  0  0  0  0  0  0  0  0  0
    5.6983    4.2339    0.0000 H   0  0  0  0  0  0  0  0  0  0  0  0
    7.7213    5.4239    0.0000 H   0  0  0  0  0  0  0  0  0  0  0  0
    7.1013    6.0439    0.0000 H   0  0  0  0  0  0  0  0  0  0  0  0
    6.4813    5.4239    0.0000 H   0  0  0  0  0  0  0  0  0  0  0  0
  1 21  1  0  0  0  0
  2 28  2  0  0  0  0
  3  9  1  0  0  0  0
  3 29  1  0  0  0  0
  4  5  1  0  0  0  0
  4 10  1  0  0  0  0
  4 11  1  0  0  0  0
  5 15  2  0  0  0  0
  6 11  1  0  0  0  0
  6 16  1  0  0  0  0
  6 38  1  0  0  0  0
  7 19  1  0  0  0  0
  7 20  1  0  0  0  0
  7 43  1  0  0  0  0
  8 16  2  0  0  0  0
  8 23  1  0  0  0  0
  9 28  1  0  0  0  0
  9 49  1  0  0  0  0
 10 12  1  0  0  0  0
 10 13  1  0  0  0  0
 10 30  1  0  0  0  0
 11 14  2  0  0  0  0
 12 31  1  0  0  0  0
 12 32  1  0  0  0  0
 12 33  1  0  0  0  0
 13 34  1  0  0  0  0
 13 35  1  0  0  0  0
 13 36  1  0  0  0  0
 14 15  1  0  0  0  0
 14 37  1  0  0  0  0
 15 17  1  0  0  0  0
 16 18  1  0  0  0  0
 17 39  1  0  0  0  0
 17 40  1  0  0  0  0
 17 41  1  0  0  0  0
 18 19  2  0  0  0  0
 18 42  1  0  0  0  0
 19 21  1  0  0  0  0
 20 22  1  0  0  0  0
 20 24  2  0  0  0  0
 21 23  2  0  0  0  0
 22 25  2  0  0  0  0
 22 28  1  0  0  0  0
 23 44  1  0  0  0  0
 24 26  1  0  0  0  0
 24 45  1  0  0  0  0
 25 27  1  0  0  0  0
 25 46  1  0  0  0  0
 26 27  2  0  0  0  0
 26 47  1  0  0  0  0
 27 48  1  0  0  0  0
 29 50  1  0  0  0  0
 29 51  1  0  0  0  0
 29 52  1  0  0  0  0
M  END
> <PUBCHEM_COMPOUND_CID>
46214930

> <PUBCHEM_COMPOUND_CANONICALIZED>
1

> <PUBCHEM_CACTVS_COMPLEXITY>
539

> <PUBCHEM_CACTVS_HBOND_ACCEPTOR>
6

> <PUBCHEM_CACTVS_HBOND_DONOR>
3

> <PUBCHEM_CACTVS_ROTATABLE_BOND>
7

> <PUBCHEM_CACTVS_SUBSKEYS>
AAADceB7sAAEAAAAAAAAAAAAAAAAAWAAAAA8QAAAAAAAAAAB8AAAHgIcAAAADCrBniY/8JLYEACqAzd3dACShCs1hyA92CE4ZtiIIHrB39HEpYh4mALIyecYiACOAAAAAAACAAAAAAAAAAQAAAAAAAAAAA==

> <PUBCHEM_IUPAC_OPENEYE_NAME>
2-[[5-chloro-2-[(2-isopropyl-5-methyl-pyrazol-3-yl)amino]-4-pyridyl]amino]-N-methoxy-benzamide

> <PUBCHEM_IUPAC_CAS_NAME>
2-[[5-chloro-2-[(5-methyl-2-propan-2-yl-3-pyrazolyl)amino]-4-pyridinyl]amino]-N-methoxybenzamide

> <PUBCHEM_IUPAC_NAME_MARKUP>
2-[[5-chloro-2-[(5-methyl-2-propan-2-ylpyrazol-3-yl)amino]pyridin-4-yl]amino]-<I>N</I>-methoxybenzamide

> <PUBCHEM_IUPAC_NAME>
2-[[5-chloro-2-[(5-methyl-2-propan-2-ylpyrazol-3-yl)amino]pyridin-4-yl]amino]-N-methoxybenzamide

> <PUBCHEM_IUPAC_SYSTEMATIC_NAME>
2-[[5-chloranyl-2-[(5-methyl-2-propan-2-yl-pyrazol-3-yl)amino]pyridin-4-yl]amino]-N-methoxy-benzamide

> <PUBCHEM_IUPAC_TRADITIONAL_NAME>
2-[[5-chloro-2-[(2-isopropyl-5-methyl-pyrazol-3-yl)amino]-4-pyridyl]amino]-N-methoxy-benzamide

> <PUBCHEM_IUPAC_INCHI>
InChI=1S/C20H23ClN6O2/c1-12(2)27-19(9-13(3)25-27)24-18-10-17(15(21)11-22-18)23-16-8-6-5-7-14(16)20(28)26-29-4/h5-12H,1-4H3,(H,26,28)(H2,22,23,24)

> <PUBCHEM_IUPAC_INCHIKEY>
BVAHPPKGOOJSPU-UHFFFAOYSA-N

> <PUBCHEM_XLOGP3_AA>
4.5

> <PUBCHEM_EXACT_MASS>
414.1571017

> <PUBCHEM_MOLECULAR_FORMULA>
C20H23ClN6O2

> <PUBCHEM_MOLECULAR_WEIGHT>
414.9

> <PUBCHEM_OPENEYE_CAN_SMILES>
CC1=NN(C(=C1)NC2=NC=C(C(=C2)NC3=CC=CC=C3C(=O)NOC)Cl)C(C)C

> <PUBCHEM_OPENEYE_ISO_SMILES>
CC1=NN(C(=C1)NC2=NC=C(C(=C2)NC3=CC=CC=C3C(=O)NOC)Cl)C(C)C

> <PUBCHEM_CACTVS_TPSA>
93.1

> <PUBCHEM_MONOISOTOPIC_WEIGHT>
414.1571017

> <PUBCHEM_TOTAL_CHARGE>
0

> <PUBCHEM_HEAVY_ATOM_COUNT>
29

> <PUBCHEM_ATOM_DEF_STEREO_COUNT>
0

> <PUBCHEM_ATOM_UDEF_STEREO_COUNT>
0

> <PUBCHEM_BOND_DEF_STEREO_COUNT>
0

> <PUBCHEM_BOND_UDEF_STEREO_COUNT>
0

> <PUBCHEM_ISOTOPIC_ATOM_COUNT>
0

> <PUBCHEM_COMPONENT_COUNT>
1

> <PUBCHEM_CACTVS_TAUTO_COUNT>
115

> <PUBCHEM_COORDINATE_TYPE>
1
5
255

> <PUBCHEM_BONDANNOTATIONS>
11  14  8
14  15  8
16  18  8
18  19  8
19  21  8
20  22  8
20  24  8
21  23  8
22  25  8
24  26  8
25  27  8
26  27  8
4  11  8
4  5  8
5  15  8
8  16  8
8  23  8

$$$$
89884852
  -OEChem-11282412102D

 53 56  0     0  0  0  0  0  0999 V2000
    8.9962    3.2673    0.0000 Cl  0  0  0  0  0  0  0  0  0  0  0  0
    8.1301    0.7673    0.0000 O   0  0  0  0  0  0  0  0  0  0  0  0
   11.5942    1.7673    0.0000 O   0  0  0  0  0  0  0  0  0  0  0  0
    9.8622    0.7673    0.0000 N   0  0  0  0  0  0  0  0  0  0  0  0
    9.8622    1.7673    0.0000 N   0  0  0  0  0  0  0  0  0  0  0  0
    4.6660   -5.2327    0.0000 N   0  0  0  0  0  0  0  0  0  0  0  0
    8.9962   -2.7327    0.0000 C   0  0  0  0  0  0  0  0  0  0  0  0
    8.9962   -0.7327    0.0000 C   0  0  0  0  0  0  0  0  0  0  0  0
    8.1301   -2.2327    0.0000 C   0  0  0  0  0  0  0  0  0  0  0  0
   10.7282    3.2673    0.0000 C   0  0  0  0  0  0  0  0  0  0  0  0
   11.5942    3.7673    0.0000 C   0  0  0  0  0  0  0  0  0  0  0  0
    8.1301   -1.2327    0.0000 C   0  0  0  0  0  0  0  0  0  0  0  0
    9.8622   -2.2327    0.0000 C   0  0  0  0  0  0  0  0  0  0  0  0
    9.8622   -1.2327    0.0000 C   0  0  0  0  0  0  0  0  0  0  0  0
    3.8000   -3.7327    0.0000 C   0  0  0  0  0  0  0  0  0  0  0  0
    3.8000   -4.7327    0.0000 C   0  0  0  0  0  0  0  0  0  0  0  0
    8.9962    0.2673    0.0000 C   0  0  0  0  0  0  0  0  0  0  0  0
   10.7282    2.2673    0.0000 C   0  0  0  0  0  0  0  0  0  0  0  0
    9.8622    3.7673    0.0000 C   0  0  0  0  0  0  0  0  0  0  0  0
   11.5942    4.7673    0.0000 C   0  0  0  0  0  0  0  0  0  0  0  0
    4.6660   -3.2327    0.0000 C   0  0  0  0  0  0  0  0  0  0  0  0
    8.9962   -3.7327    0.0000 C   0  0  0  0  0  0  0  0  0  0  0  0
    5.5321   -3.7327    0.0000 C   0  0  0  0  0  0  0  0  0  0  0  0
   12.4603    3.2673    0.0000 C   0  0  0  0  0  0  0  0  0  0  0  0
    2.9061   -3.1980    0.0000 C   0  0  0  0  0  0  0  0  0  0  0  0
    9.8622    4.7673    0.0000 C   0  0  0  0  0  0  0  0  0  0  0  0
   10.7282    5.2673    0.0000 C   0  0  0  0  0  0  0  0  0  0  0  0
    2.9061   -5.2673    0.0000 C   0  0  0  0  0  0  0  0  0  0  0  0
    7.2641   -2.7327    0.0000 C   0  0  0  0  0  0  0  0  0  0  0  0
    5.5321   -4.7327    0.0000 C   0  0  0  0  0  0  0  0  0  0  0  0
    2.0000   -3.7118    0.0000 C   0  0  0  0  0  0  0  0  0  0  0  0
    2.0000   -4.7535    0.0000 C   0  0  0  0  0  0  0  0  0  0  0  0
    6.3981   -3.2327    0.0000 C   0  0  0  0  0  0  0  0  0  0  0  0
    7.5932   -0.9227    0.0000 H   0  0  0  0  0  0  0  0  0  0  0  0
   10.3991   -2.5427    0.0000 H   0  0  0  0  0  0  0  0  0  0  0  0
   10.3991   -0.9227    0.0000 H   0  0  0  0  0  0  0  0  0  0  0  0
   12.1312    5.0773    0.0000 H   0  0  0  0  0  0  0  0  0  0  0  0
    4.6660   -2.6127    0.0000 H   0  0  0  0  0  0  0  0  0  0  0  0
    8.3762   -3.7327    0.0000 H   0  0  0  0  0  0  0  0  0  0  0  0
    8.9962   -4.3527    0.0000 H   0  0  0  0  0  0  0  0  0  0  0  0
    9.6162   -3.7327    0.0000 H   0  0  0  0  0  0  0  0  0  0  0  0
   12.1503    2.7304    0.0000 H   0  0  0  0  0  0  0  0  0  0  0  0
   12.9972    2.9573    0.0000 H   0  0  0  0  0  0  0  0  0  0  0  0
   12.7703    3.8043    0.0000 H   0  0  0  0  0  0  0  0  0  0  0  0
    2.9132   -2.5780    0.0000 H   0  0  0  0  0  0  0  0  0  0  0  0
   10.3991    0.4573    0.0000 H   0  0  0  0  0  0  0  0  0  0  0  0
    9.3252    2.0773    0.0000 H   0  0  0  0  0  0  0  0  0  0  0  0
    9.3252    5.0773    0.0000 H   0  0  0  0  0  0  0  0  0  0  0  0
   10.7282    5.8873    0.0000 H   0  0  0  0  0  0  0  0  0  0  0  0
    2.9132   -5.8873    0.0000 H   0  0  0  0  0  0  0  0  0  0  0  0
    6.0690   -5.0427    0.0000 H   0  0  0  0  0  0  0  0  0  0  0  0
    1.4643   -3.3998    0.0000 H   0  0  0  0  0  0  0  0  0  0  0  0
    1.4643   -5.0656    0.0000 H   0  0  0  0  0  0  0  0  0  0  0  0
  1 19  1  0  0  0  0
  2 17  2  0  0  0  0
  3 18  2  0  0  0  0
  4  5  1  0  0  0  0
  4 17  1  0  0  0  0
  4 46  1  0  0  0  0
  5 18  1  0  0  0  0
  5 47  1  0  0  0  0
  6 16  1  0  0  0  0
  6 30  2  0  0  0  0
  7  9  2  0  0  0  0
  7 13  1  0  0  0  0
  7 22  1  0  0  0  0
  8 12  2  0  0  0  0
  8 14  1  0  0  0  0
  8 17  1  0  0  0  0
  9 12  1  0  0  0  0
  9 29  1  0  0  0  0
 10 11  2  0  0  0  0
 10 18  1  0  0  0  0
 10 19  1  0  0  0  0
 11 20  1  0  0  0  0
 11 24  1  0  0  0  0
 12 34  1  0  0  0  0
 13 14  2  0  0  0  0
 13 35  1  0  0  0  0
 14 36  1  0  0  0  0
 15 16  1  0  0  0  0
 15 21  1  0  0  0  0
 15 25  2  0  0  0  0
 16 28  2  0  0  0  0
 19 26  2  0  0  0  0
 20 27  2  0  0  0  0
 20 37  1  0  0  0  0
 21 23  2  0  0  0  0
 21 38  1  0  0  0  0
 22 39  1  0  0  0  0
 22 40  1  0  0  0  0
 22 41  1  0  0  0  0
 23 30  1  0  0  0  0
 23 33  1  0  0  0  0
 24 42  1  0  0  0  0
 24 43  1  0  0  0  0
 24 44  1  0  0  0  0
 25 31  1  0  0  0  0
 25 45  1  0  0  0  0
 26 27  1  0  0  0  0
 26 48  1  0  0  0  0
 27 49  1  0  0  0  0
 28 32  1  0  0  0  0
 28 50  1  0  0  0  0
 29 33  3  0  0  0  0
 30 51  1  0  0  0  0
 31 32  2  0  0  0  0
 31 52  1  0  0  0  0
 32 53  1  0  0  0  0
M  END
> <PUBCHEM_COMPOUND_CID>
89884852

> <PUBCHEM_COMPOUND_CANONICALIZED>
1

> <PUBCHEM_CACTVS_COMPLEXITY>
774

> <PUBCHEM_CACTVS_HBOND_ACCEPTOR>
3

> <PUBCHEM_CACTVS_HBOND_DONOR>
2

> <PUBCHEM_CACTVS_ROTATABLE_BOND>
4

> <PUBCHEM_CACTVS_SUBSKEYS>
AAADceB7MAAEAAAAAAAAAAAAAAAAAAAAAAA8YMEAAAAAAACx9AAAHgIYAAAADArBniQ+wPJqEADoEzV3VAiCgCA1ByIa+CE4ZtgIIPLBl5GEIQhggADIzYcYiMCOwAACIAATAACAAARAACYAAAAAAAAAAA==

> <PUBCHEM_IUPAC_OPENEYE_NAME>
2-chloro-6-methyl-N'-[4-methyl-3-[2-(3-quinolyl)ethynyl]benzoyl]benzohydrazide

> <PUBCHEM_IUPAC_CAS_NAME>
2-chloro-6-methyl-N'-[[4-methyl-3-[2-(3-quinolinyl)ethynyl]phenyl]-oxomethyl]benzohydrazide

> <PUBCHEM_IUPAC_NAME_MARKUP>
2-chloro-6-methyl-<I>N</I>&apos;-[4-methyl-3-(2-quinolin-3-ylethynyl)benzoyl]benzohydrazide

> <PUBCHEM_IUPAC_NAME>
2-chloro-6-methyl-N'-[4-methyl-3-(2-quinolin-3-ylethynyl)benzoyl]benzohydrazide

> <PUBCHEM_IUPAC_SYSTEMATIC_NAME>
2-chloranyl-6-methyl-N'-[4-methyl-3-(2-quinolin-3-ylethynyl)phenyl]carbonyl-benzohydrazide

> <PUBCHEM_IUPAC_TRADITIONAL_NAME>
2-chloro-6-methyl-N'-[4-methyl-3-[2-(3-quinolyl)ethynyl]benzoyl]benzohydrazide

> <PUBCHEM_IUPAC_INCHI>
InChI=1S/C27H20ClN3O2/c1-17-10-12-22(26(32)30-31-27(33)25-18(2)6-5-8-23(25)28)15-20(17)13-11-19-14-21-7-3-4-9-24(21)29-16-19/h3-10,12,14-16H,1-2H3,(H,30,32)(H,31,33)

> <PUBCHEM_IUPAC_INCHIKEY>
ZQOBVMHBVWNVBG-UHFFFAOYSA-N

> <PUBCHEM_XLOGP3_AA>
6

> <PUBCHEM_EXACT_MASS>
453.1244046

> <PUBCHEM_MOLECULAR_FORMULA>
C27H20ClN3O2

> <PUBCHEM_MOLECULAR_WEIGHT>
453.9

> <PUBCHEM_OPENEYE_CAN_SMILES>
CC1=C(C(=CC=C1)Cl)C(=O)NNC(=O)C2=CC(=C(C=C2)C)C#CC3=CC4=CC=CC=C4N=C3

> <PUBCHEM_OPENEYE_ISO_SMILES>
CC1=C(C(=CC=C1)Cl)C(=O)NNC(=O)C2=CC(=C(C=C2)C)C#CC3=CC4=CC=CC=C4N=C3

> <PUBCHEM_CACTVS_TPSA>
71.1

> <PUBCHEM_MONOISOTOPIC_WEIGHT>
453.1244046

> <PUBCHEM_TOTAL_CHARGE>
0

> <PUBCHEM_HEAVY_ATOM_COUNT>
33

> <PUBCHEM_ATOM_DEF_STEREO_COUNT>
0

> <PUBCHEM_ATOM_UDEF_STEREO_COUNT>
0

> <PUBCHEM_BOND_DEF_STEREO_COUNT>
0

> <PUBCHEM_BOND_UDEF_STEREO_COUNT>
0

> <PUBCHEM_ISOTOPIC_ATOM_COUNT>
0

> <PUBCHEM_COMPONENT_COUNT>
1

> <PUBCHEM_CACTVS_TAUTO_COUNT>
-1

> <PUBCHEM_COORDINATE_TYPE>
1
5
255

> <PUBCHEM_BONDANNOTATIONS>
10  11  8
10  19  8
11  20  8
13  14  8
15  16  8
15  21  8
15  25  8
16  28  8
19  26  8
20  27  8
21  23  8
23  30  8
25  31  8
26  27  8
28  32  8
31  32  8
6  16  8
6  30  8
7  13  8
7  9  8
8  12  8
8  14  8
9  12  8

$$$$
5330175
  -OEChem-11282412102D

 58 61  0     0  0  0  0  0  0999 V2000
    8.9214   -4.0072    0.0000 Cl  0  0  0  0  0  0  0  0  0  0  0  0
    5.4641    1.0272    0.0000 O   0  0  0  0  0  0  0  0  0  0  0  0
    5.4641   -0.9728    0.0000 O   0  0  0  0  0  0  0  0  0  0  0  0
   12.4084   -2.0474    0.0000 O   0  0  0  0  0  0  0  0  0  0  0  0
    2.8660    3.5272    0.0000 N   0  0  0  0  0  0  0  0  0  0  0  0
    8.9561    1.0619    0.0000 N   0  0  0  0  0  0  0  0  0  0  0  0
    8.9446   -2.0074    0.0000 N   0  0  0  0  0  0  0  0  0  0  0  0
    9.8622   -0.4936    0.0000 N   0  0  0  0  0  0  0  0  0  0  0  0
    4.5981    2.5272    0.0000 C   0  0  0  0  0  0  0  0  0  0  0  0
    4.5981    3.5272    0.0000 C   0  0  0  0  0  0  0  0  0  0  0  0
    3.7320    2.0272    0.0000 C   0  0  0  0  0  0  0  0  0  0  0  0
    3.7320    4.0272    0.0000 C   0  0  0  0  0  0  0  0  0  0  0  0
    2.8660    2.5272    0.0000 C   0  0  0  0  0  0  0  0  0  0  0  0
    5.4641    2.0272    0.0000 C   0  0  0  0  0  0  0  0  0  0  0  0
    2.0000    4.0272    0.0000 C   0  0  0  0  0  0  0  0  0  0  0  0
    6.3301    0.5272    0.0000 C   0  0  0  0  0  0  0  0  0  0  0  0
    6.3301   -0.4728    0.0000 C   0  0  0  0  0  0  0  0  0  0  0  0
    7.1962    1.0272    0.0000 C   0  0  0  0  0  0  0  0  0  0  0  0
    8.0622    0.5272    0.0000 C   0  0  0  0  0  0  0  0  0  0  0  0
    8.0622   -0.4728    0.0000 C   0  0  0  0  0  0  0  0  0  0  0  0
    7.1962   -0.9728    0.0000 C   0  0  0  0  0  0  0  0  0  0  0  0
    8.9561   -1.0074    0.0000 C   0  0  0  0  0  0  0  0  0  0  0  0
    9.8622    0.5481    0.0000 C   0  0  0  0  0  0  0  0  0  0  0  0
    5.4641   -1.9728    0.0000 C   0  0  0  0  0  0  0  0  0  0  0  0
    9.8047   -2.5173    0.0000 C   0  0  0  0  0  0  0  0  0  0  0  0
   10.6765   -2.0274    0.0000 C   0  0  0  0  0  0  0  0  0  0  0  0
    9.7932   -3.5173    0.0000 C   0  0  0  0  0  0  0  0  0  0  0  0
   11.5367   -2.5374    0.0000 C   0  0  0  0  0  0  0  0  0  0  0  0
   10.6534   -4.0272    0.0000 C   0  0  0  0  0  0  0  0  0  0  0  0
   11.5251   -3.5373    0.0000 C   0  0  0  0  0  0  0  0  0  0  0  0
   13.2686   -2.5574    0.0000 C   0  0  0  0  0  0  0  0  0  0  0  0
    4.5981    1.9072    0.0000 H   0  0  0  0  0  0  0  0  0  0  0  0
    5.2087    3.4196    0.0000 H   0  0  0  0  0  0  0  0  0  0  0  0
    4.8101    4.1098    0.0000 H   0  0  0  0  0  0  0  0  0  0  0  0
    3.3335    1.5523    0.0000 H   0  0  0  0  0  0  0  0  0  0  0  0
    4.1306    1.5523    0.0000 H   0  0  0  0  0  0  0  0  0  0  0  0
    4.1306    4.5022    0.0000 H   0  0  0  0  0  0  0  0  0  0  0  0
    3.3335    4.5022    0.0000 H   0  0  0  0  0  0  0  0  0  0  0  0
    2.2554    2.6349    0.0000 H   0  0  0  0  0  0  0  0  0  0  0  0
    2.6540    1.9446    0.0000 H   0  0  0  0  0  0  0  0  0  0  0  0
    6.0747    1.9196    0.0000 H   0  0  0  0  0  0  0  0  0  0  0  0
    5.6762    2.6098    0.0000 H   0  0  0  0  0  0  0  0  0  0  0  0
    2.3100    4.5642    0.0000 H   0  0  0  0  0  0  0  0  0  0  0  0
    1.4631    4.3372    0.0000 H   0  0  0  0  0  0  0  0  0  0  0  0
    1.6900    3.4903    0.0000 H   0  0  0  0  0  0  0  0  0  0  0  0
    7.1962    1.6472    0.0000 H   0  0  0  0  0  0  0  0  0  0  0  0
    7.1962   -1.5928    0.0000 H   0  0  0  0  0  0  0  0  0  0  0  0
    8.4041   -2.3111    0.0000 H   0  0  0  0  0  0  0  0  0  0  0  0
   10.3979    0.8601    0.0000 H   0  0  0  0  0  0  0  0  0  0  0  0
    4.8441   -1.9728    0.0000 H   0  0  0  0  0  0  0  0  0  0  0  0
    5.4641   -2.5928    0.0000 H   0  0  0  0  0  0  0  0  0  0  0  0
    6.0841   -1.9728    0.0000 H   0  0  0  0  0  0  0  0  0  0  0  0
   10.6837   -1.4074    0.0000 H   0  0  0  0  0  0  0  0  0  0  0  0
   10.6462   -4.6472    0.0000 H   0  0  0  0  0  0  0  0  0  0  0  0
   12.0584   -3.8535    0.0000 H   0  0  0  0  0  0  0  0  0  0  0  0
   12.9524   -3.0907    0.0000 H   0  0  0  0  0  0  0  0  0  0  0  0
   13.8019   -2.8736    0.0000 H   0  0  0  0  0  0  0  0  0  0  0  0
   13.5848   -2.0241    0.0000 H   0  0  0  0  0  0  0  0  0  0  0  0
  1 27  1  0  0  0  0
  2 14  1  0  0  0  0
  2 16  1  0  0  0  0
  3 17  1  0  0  0  0
  3 24  1  0  0  0  0
  4 28  1  0  0  0  0
  4 31  1  0  0  0  0
  5 12  1  0  0  0  0
  5 13  1  0  0  0  0
  5 15  1  0  0  0  0
  6 19  1  0  0  0  0
  6 23  2  0  0  0  0
  7 22  1  0  0  0  0
  7 25  1  0  0  0  0
  7 48  1  0  0  0  0
  8 22  2  0  0  0  0
  8 23  1  0  0  0  0
  9 10  1  0  0  0  0
  9 11  1  0  0  0  0
  9 14  1  0  0  0  0
  9 32  1  0  0  0  0
 10 12  1  0  0  0  0
 10 33  1  0  0  0  0
 10 34  1  0  0  0  0
 11 13  1  0  0  0  0
 11 35  1  0  0  0  0
 11 36  1  0  0  0  0
 12 37  1  0  0  0  0
 12 38  1  0  0  0  0
 13 39  1  0  0  0  0
 13 40  1  0  0  0  0
 14 41  1  0  0  0  0
 14 42  1  0  0  0  0
 15 43  1  0  0  0  0
 15 44  1  0  0  0  0
 15 45  1  0  0  0  0
 16 17  2  0  0  0  0
 16 18  1  0  0  0  0
 17 21  1  0  0  0  0
 18 19  2  0  0  0  0
 18 46  1  0  0  0  0
 19 20  1  0  0  0  0
 20 21  2  0  0  0  0
 20 22  1  0  0  0  0
 21 47  1  0  0  0  0
 23 49  1  0  0  0  0
 24 50  1  0  0  0  0
 24 51  1  0  0  0  0
 24 52  1  0  0  0  0
 25 26  1  0  0  0  0
 25 27  2  0  0  0  0
 26 28  2  0  0  0  0
 26 53  1  0  0  0  0
 27 29  1  0  0  0  0
 28 30  1  0  0  0  0
 29 30  2  0  0  0  0
 29 54  1  0  0  0  0
 30 55  1  0  0  0  0
 31 56  1  0  0  0  0
 31 57  1  0  0  0  0
 31 58  1  0  0  0  0
M  END
> <PUBCHEM_COMPOUND_CID>
5330175

> <PUBCHEM_COMPOUND_CANONICALIZED>
1

> <PUBCHEM_CACTVS_COMPLEXITY>
551

> <PUBCHEM_CACTVS_HBOND_ACCEPTOR>
7

> <PUBCHEM_CACTVS_HBOND_DONOR>
1

> <PUBCHEM_CACTVS_ROTATABLE_BOND>
7

> <PUBCHEM_CACTVS_SUBSKEYS>
AAADceB7sAAEAAAAAAAAAAAAAAAAAAAAAAA8eIEAAAAAAACx9AAAHgIQAAAADQ7hniY39vfIFACgAyZjZACCiCkxJ6AJ2CA+7piNLuLF+9vGPCru0BvK6Cew0BMOIGABAgACQBBAwAIEAASAIAAAAAAAAA==

> <PUBCHEM_IUPAC_OPENEYE_NAME>
N-(2-chloro-5-methoxy-phenyl)-6-methoxy-7-[(1-methyl-4-piperidyl)methoxy]quinazolin-4-amine

> <PUBCHEM_IUPAC_CAS_NAME>
N-(2-chloro-5-methoxyphenyl)-6-methoxy-7-[(1-methyl-4-piperidinyl)methoxy]-4-quinazolinamine

> <PUBCHEM_IUPAC_NAME_MARKUP>
<I>N</I>-(2-chloro-5-methoxyphenyl)-6-methoxy-7-[(1-methylpiperidin-4-yl)methoxy]quinazolin-4-amine

> <PUBCHEM_IUPAC_NAME>
N-(2-chloro-5-methoxyphenyl)-6-methoxy-7-[(1-methylpiperidin-4-yl)methoxy]quinazolin-4-amine

> <PUBCHEM_IUPAC_SYSTEMATIC_NAME>
N-(2-chloranyl-5-methoxy-phenyl)-6-methoxy-7-[(1-methylpiperidin-4-yl)methoxy]quinazolin-4-amine

> <PUBCHEM_IUPAC_TRADITIONAL_NAME>
(2-chloro-5-methoxy-phenyl)-[6-methoxy-7-[(1-methyl-4-piperidyl)methoxy]quinazolin-4-yl]amine

> <PUBCHEM_IUPAC_INCHI>
InChI=1S/C23H27ClN4O3/c1-28-8-6-15(7-9-28)13-31-22-12-19-17(11-21(22)30-3)23(26-14-25-19)27-20-10-16(29-2)4-5-18(20)24/h4-5,10-12,14-15H,6-9,13H2,1-3H3,(H,25,26,27)

> <PUBCHEM_IUPAC_INCHIKEY>
WPOXAFXHRJYEIC-UHFFFAOYSA-N

> <PUBCHEM_XLOGP3_AA>
4.7

> <PUBCHEM_EXACT_MASS>
442.1771684

> <PUBCHEM_MOLECULAR_FORMULA>
C23H27ClN4O3

> <PUBCHEM_MOLECULAR_WEIGHT>
442.9

> <PUBCHEM_OPENEYE_CAN_SMILES>
CN1CCC(CC1)COC2=C(C=C3C(=C2)N=CN=C3NC4=C(C=CC(=C4)OC)Cl)OC

> <PUBCHEM_OPENEYE_ISO_SMILES>
CN1CCC(CC1)COC2=C(C=C3C(=C2)N=CN=C3NC4=C(C=CC(=C4)OC)Cl)OC

> <PUBCHEM_CACTVS_TPSA>
68.7

> <PUBCHEM_MONOISOTOPIC_WEIGHT>
442.1771684

> <PUBCHEM_TOTAL_CHARGE>
0

> <PUBCHEM_HEAVY_ATOM_COUNT>
31

> <PUBCHEM_ATOM_DEF_STEREO_COUNT>
0

> <PUBCHEM_ATOM_UDEF_STEREO_COUNT>
0

> <PUBCHEM_BOND_DEF_STEREO_COUNT>
0

> <PUBCHEM_BOND_UDEF_STEREO_COUNT>
0

> <PUBCHEM_ISOTOPIC_ATOM_COUNT>
0

> <PUBCHEM_COMPONENT_COUNT>
1

> <PUBCHEM_CACTVS_TAUTO_COUNT>
-1

> <PUBCHEM_COORDINATE_TYPE>
1
5
255

> <PUBCHEM_BONDANNOTATIONS>
16  17  8
16  18  8
17  21  8
18  19  8
19  20  8
20  21  8
20  22  8
25  26  8
25  27  8
26  28  8
27  29  8
28  30  8
29  30  8
6  19  8
6  23  8
8  22  8
8  23  8

$$$$
10437018
  -OEChem-11282412102D

 66 71  0     1  0  0  0  0  0999 V2000
    2.0000    3.4045    0.0000 F   0  0  0  0  0  0  0  0  0  0  0  0
   17.5022   -2.4985    0.0000 O   0  0  0  0  0  0  0  0  0  0  0  0
   14.5022   -2.4985    0.0000 O   0  0  0  0  0  0  0  0  0  0  0  0
   13.0022   -3.3645    0.0000 O   0  0  0  0  0  0  0  0  0  0  0  0
   16.5022   -4.2306    0.0000 N   0  0  0  0  0  0  0  0  0  0  0  0
   10.4723   -2.1325    0.0000 N   0  0  0  0  0  0  0  0  0  0  0  0
    6.2712    2.5346    0.0000 N   0  0  0  0  0  0  0  0  0  0  0  0
    9.6063    0.3675    0.0000 N   0  0  0  0  0  0  0  0  0  0  0  0
   13.0022   -1.6325    0.0000 N   0  0  0  0  0  0  0  0  0  0  0  0
    6.6763    3.4424    0.0000 N   0  0  0  0  0  0  0  0  0  0  0  0
    9.6063   -2.6325    0.0000 N   0  0  0  0  0  0  0  0  0  0  0  0
    8.7403   -1.1325    0.0000 N   0  0  0  0  0  0  0  0  0  0  0  0
   16.0022   -3.3645    0.0000 C   0  0  1  0  0  0  0  0  0  0  0  0
   16.5022   -2.4985    0.0000 C   0  0  0  0  0  0  0  0  0  0  0  0
   17.5022   -4.2306    0.0000 C   0  0  0  0  0  0  0  0  0  0  0  0
   15.0022   -3.3645    0.0000 C   0  0  0  0  0  0  0  0  0  0  0  0
   18.0022   -3.3645    0.0000 C   0  0  0  0  0  0  0  0  0  0  0  0
   10.4723   -1.1325    0.0000 C   0  0  0  0  0  0  0  0  0  0  0  0
   11.4185   -0.8278    0.0000 C   0  0  0  0  0  0  0  0  0  0  0  0
   12.0022   -1.6325    0.0000 C   0  0  0  0  0  0  0  0  0  0  0  0
    7.0082    1.8675    0.0000 C   0  0  0  0  0  0  0  0  0  0  0  0
    9.6063   -0.6325    0.0000 C   0  0  0  0  0  0  0  0  0  0  0  0
    7.8742    2.3675    0.0000 C   0  0  0  0  0  0  0  0  0  0  0  0
   11.4185   -2.4372    0.0000 C   0  0  0  0  0  0  0  0  0  0  0  0
    8.7403    0.8675    0.0000 C   0  0  0  0  0  0  0  0  0  0  0  0
    5.2927    2.3284    0.0000 C   0  0  0  0  0  0  0  0  0  0  0  0
    8.7403    1.8675    0.0000 C   0  0  0  0  0  0  0  0  0  0  0  0
   13.5022   -2.4985    0.0000 C   0  0  0  0  0  0  0  0  0  0  0  0
    7.0082    0.8675    0.0000 C   0  0  0  0  0  0  0  0  0  0  0  0
   11.7292    0.1228    0.0000 C   0  0  0  0  0  0  0  0  0  0  0  0
    7.8742    0.3675    0.0000 C   0  0  0  0  0  0  0  0  0  0  0  0
    7.6650    3.3393    0.0000 C   0  0  0  0  0  0  0  0  0  0  0  0
    4.6249    3.0727    0.0000 C   0  0  0  0  0  0  0  0  0  0  0  0
    8.7403   -2.1325    0.0000 C   0  0  0  0  0  0  0  0  0  0  0  0
    3.6464    2.8665    0.0000 C   0  0  0  0  0  0  0  0  0  0  0  0
    4.9355    4.0232    0.0000 C   0  0  0  0  0  0  0  0  0  0  0  0
    2.9785    3.6108    0.0000 C   0  0  0  0  0  0  0  0  0  0  0  0
    4.2677    4.7675    0.0000 C   0  0  0  0  0  0  0  0  0  0  0  0
    3.2892    4.5613    0.0000 C   0  0  0  0  0  0  0  0  0  0  0  0
   15.6922   -3.9015    0.0000 H   0  0  0  0  0  0  0  0  0  0  0  0
   16.6098   -1.8879    0.0000 H   0  0  0  0  0  0  0  0  0  0  0  0
   15.9195   -2.2865    0.0000 H   0  0  0  0  0  0  0  0  0  0  0  0
   16.1922   -4.7675    0.0000 H   0  0  0  0  0  0  0  0  0  0  0  0
   17.3945   -4.8412    0.0000 H   0  0  0  0  0  0  0  0  0  0  0  0
   18.0848   -4.4426    0.0000 H   0  0  0  0  0  0  0  0  0  0  0  0
   14.4195   -3.5766    0.0000 H   0  0  0  0  0  0  0  0  0  0  0  0
   15.1098   -3.9751    0.0000 H   0  0  0  0  0  0  0  0  0  0  0  0
   18.4771   -3.7631    0.0000 H   0  0  0  0  0  0  0  0  0  0  0  0
   18.4771   -2.9660    0.0000 H   0  0  0  0  0  0  0  0  0  0  0  0
   11.6112   -3.0265    0.0000 H   0  0  0  0  0  0  0  0  0  0  0  0
    4.7663    2.0007    0.0000 H   0  0  0  0  0  0  0  0  0  0  0  0
    5.5240    1.7531    0.0000 H   0  0  0  0  0  0  0  0  0  0  0  0
   10.1432    0.6775    0.0000 H   0  0  0  0  0  0  0  0  0  0  0  0
    9.2772    2.1775    0.0000 H   0  0  0  0  0  0  0  0  0  0  0  0
   13.3122   -1.0956    0.0000 H   0  0  0  0  0  0  0  0  0  0  0  0
    6.4713    0.5575    0.0000 H   0  0  0  0  0  0  0  0  0  0  0  0
   12.3185   -0.0698    0.0000 H   0  0  0  0  0  0  0  0  0  0  0  0
   11.9218    0.7121    0.0000 H   0  0  0  0  0  0  0  0  0  0  0  0
   11.1399    0.3154    0.0000 H   0  0  0  0  0  0  0  0  0  0  0  0
    7.8742   -0.2525    0.0000 H   0  0  0  0  0  0  0  0  0  0  0  0
    8.0791    3.8008    0.0000 H   0  0  0  0  0  0  0  0  0  0  0  0
    8.2033   -2.4425    0.0000 H   0  0  0  0  0  0  0  0  0  0  0  0
    3.4537    2.2771    0.0000 H   0  0  0  0  0  0  0  0  0  0  0  0
    5.5422    4.1510    0.0000 H   0  0  0  0  0  0  0  0  0  0  0  0
    4.4603    5.3568    0.0000 H   0  0  0  0  0  0  0  0  0  0  0  0
    2.8751    5.0228    0.0000 H   0  0  0  0  0  0  0  0  0  0  0  0
  1 37  1  0  0  0  0
  2 14  1  0  0  0  0
  2 17  1  0  0  0  0
  3 16  1  0  0  0  0
  3 28  1  0  0  0  0
  4 28  2  0  0  0  0
  5 13  1  0  0  0  0
  5 15  1  0  0  0  0
  5 43  1  0  0  0  0
  6 11  1  0  0  0  0
  6 18  1  0  0  0  0
  6 24  1  0  0  0  0
  7 10  1  0  0  0  0
  7 21  1  0  0  0  0
  7 26  1  0  0  0  0
  8 22  1  0  0  0  0
  8 25  1  0  0  0  0
  8 53  1  0  0  0  0
  9 20  1  0  0  0  0
  9 28  1  0  0  0  0
  9 55  1  0  0  0  0
 10 32  2  0  0  0  0
 11 34  2  0  0  0  0
 12 22  2  0  0  0  0
 12 34  1  0  0  0  0
 13 14  1  0  0  0  0
 13 16  1  6  0  0  0
 13 40  1  0  0  0  0
 14 41  1  0  0  0  0
 14 42  1  0  0  0  0
 15 17  1  0  0  0  0
 15 44  1  0  0  0  0
 15 45  1  0  0  0  0
 16 46  1  0  0  0  0
 16 47  1  0  0  0  0
 17 48  1  0  0  0  0
 17 49  1  0  0  0  0
 18 19  2  0  0  0  0
 18 22  1  0  0  0  0
 19 20  1  0  0  0  0
 19 30  1  0  0  0  0
 20 24  2  0  0  0  0
 21 23  2  0  0  0  0
 21 29  1  0  0  0  0
 23 27  1  0  0  0  0
 23 32  1  0  0  0  0
 24 50  1  0  0  0  0
 25 27  2  0  0  0  0
 25 31  1  0  0  0  0
 26 33  1  0  0  0  0
 26 51  1  0  0  0  0
 26 52  1  0  0  0  0
 27 54  1  0  0  0  0
 29 31  2  0  0  0  0
 29 56  1  0  0  0  0
 30 57  1  0  0  0  0
 30 58  1  0  0  0  0
 30 59  1  0  0  0  0
 31 60  1  0  0  0  0
 32 61  1  0  0  0  0
 33 35  2  0  0  0  0
 33 36  1  0  0  0  0
 34 62  1  0  0  0  0
 35 37  1  0  0  0  0
 35 63  1  0  0  0  0
 36 38  2  0  0  0  0
 36 64  1  0  0  0  0
 37 39  2  0  0  0  0
 38 39  1  0  0  0  0
 38 65  1  0  0  0  0
 39 66  1  0  0  0  0
M  END
> <PUBCHEM_COMPOUND_CID>
10437018

> <PUBCHEM_COMPOUND_CANONICALIZED>
1

> <PUBCHEM_CACTVS_COMPLEXITY>
828

> <PUBCHEM_CACTVS_HBOND_ACCEPTOR>
9

> <PUBCHEM_CACTVS_HBOND_DONOR>
3

> <PUBCHEM_CACTVS_ROTATABLE_BOND>
8

> <PUBCHEM_CACTVS_SUBSKEYS>
AAADceB78QAAAAAAAAAAAAAAAAAAAWLAAAA8eIEAAAAAAFgB/gAAHwAYAAAADCjhng4/+PbIFACqAzZnfACShC8xkqAd2KA4dJmKaOLA2dGfpAhpnALYyCcQgAAOAACAQAACAAAAAQCAAAQAAAAAAAAAAA==

> <PUBCHEM_IUPAC_OPENEYE_NAME>
[(3S)-morpholin-3-yl]methyl N-[4-[[1-[(3-fluorophenyl)methyl]indazol-5-yl]amino]-5-methyl-pyrrolo[2,1-f][1,2,4]triazin-6-yl]carbamate

> <PUBCHEM_IUPAC_CAS_NAME>
N-[4-[[1-[(3-fluorophenyl)methyl]-5-indazolyl]amino]-5-methyl-6-pyrrolo[2,1-f][1,2,4]triazinyl]carbamic acid [(3S)-3-morpholinyl]methyl ester

> <PUBCHEM_IUPAC_NAME_MARKUP>
[(3<I>S</I>)-morpholin-3-yl]methyl <I>N</I>-[4-[[1-[(3-fluorophenyl)methyl]indazol-5-yl]amino]-5-methylpyrrolo[2,1-f][1,2,4]triazin-6-yl]carbamate

> <PUBCHEM_IUPAC_NAME>
[(3S)-morpholin-3-yl]methyl N-[4-[[1-[(3-fluorophenyl)methyl]indazol-5-yl]amino]-5-methylpyrrolo[2,1-f][1,2,4]triazin-6-yl]carbamate

> <PUBCHEM_IUPAC_SYSTEMATIC_NAME>
[(3S)-morpholin-3-yl]methyl N-[4-[[1-[(3-fluorophenyl)methyl]indazol-5-yl]amino]-5-methyl-pyrrolo[2,1-f][1,2,4]triazin-6-yl]carbamate

> <PUBCHEM_IUPAC_TRADITIONAL_NAME>
N-[4-[[1-(3-fluorobenzyl)indazol-5-yl]amino]-5-methyl-pyrrolo[2,1-f][1,2,4]triazin-6-yl]carbamic acid [(3S)-morpholin-3-yl]methyl ester

> <PUBCHEM_IUPAC_INCHI>
InChI=1S/C27H27FN8O3/c1-17-23(34-27(37)39-15-22-14-38-8-7-29-22)13-36-25(17)26(30-16-32-36)33-21-5-6-24-19(10-21)11-31-35(24)12-18-3-2-4-20(28)9-18/h2-6,9-11,13,16,22,29H,7-8,12,14-15H2,1H3,(H,34,37)(H,30,32,33)/t22-/m0/s1

> <PUBCHEM_IUPAC_INCHIKEY>
LUJZZYWHBDHDQX-QFIPXVFZSA-N

> <PUBCHEM_XLOGP3_AA>
2.8

> <PUBCHEM_EXACT_MASS>
530.21901492

> <PUBCHEM_MOLECULAR_FORMULA>
C27H27FN8O3

> <PUBCHEM_MOLECULAR_WEIGHT>
530.6

> <PUBCHEM_OPENEYE_CAN_SMILES>
CC1=C2C(=NC=NN2C=C1NC(=O)OCC3COCCN3)NC4=CC5=C(C=C4)N(N=C5)CC6=CC(=CC=C6)F

> <PUBCHEM_OPENEYE_ISO_SMILES>
CC1=C2C(=NC=NN2C=C1NC(=O)OC[C@@H]3COCCN3)NC4=CC5=C(C=C4)N(N=C5)CC6=CC(=CC=C6)F

> <PUBCHEM_CACTVS_TPSA>
120

> <PUBCHEM_MONOISOTOPIC_WEIGHT>
530.21901492

> <PUBCHEM_TOTAL_CHARGE>
0

> <PUBCHEM_HEAVY_ATOM_COUNT>
39

> <PUBCHEM_ATOM_DEF_STEREO_COUNT>
1

> <PUBCHEM_ATOM_UDEF_STEREO_COUNT>
0

> <PUBCHEM_BOND_DEF_STEREO_COUNT>
0

> <PUBCHEM_BOND_UDEF_STEREO_COUNT>
0

> <PUBCHEM_ISOTOPIC_ATOM_COUNT>
0

> <PUBCHEM_COMPONENT_COUNT>
1

> <PUBCHEM_CACTVS_TAUTO_COUNT>
-1

> <PUBCHEM_COORDINATE_TYPE>
1
5
255

> <PUBCHEM_BONDANNOTATIONS>
10  32  8
11  34  8
12  22  8
12  34  8
13  16  6
18  19  8
18  22  8
19  20  8
20  24  8
21  23  8
21  29  8
23  27  8
23  32  8
25  27  8
25  31  8
29  31  8
33  35  8
33  36  8
35  37  8
36  38  8
37  39  8
38  39  8
6  11  8
6  18  8
6  24  8
7  10  8
7  21  8

$$$$
54755438
  -OEChem-11282412102D

 56 60  0     1  0  0  0  0  0999 V2000
    6.2619    0.3317    0.0000 O   0  0  0  0  0  0  0  0  0  0  0  0
    7.6651   -2.9090    0.0000 O   0  0  0  0  0  0  0  0  0  0  0  0
    5.9209    4.9385    0.0000 O   0  0  0  0  0  0  0  0  0  0  0  0
    4.6783   -0.4731    0.0000 N   0  0  0  0  0  0  0  0  0  0  0  0
    5.9422   -2.7310    0.0000 N   0  0  0  0  0  0  0  0  0  0  0  0
    4.6783    1.1364    0.0000 N   0  0  0  0  0  0  0  0  0  0  0  0
    2.8660   -0.6683    0.0000 N   0  0  0  0  0  0  0  0  0  0  0  0
    2.0000    0.8317    0.0000 N   0  0  0  0  0  0  0  0  0  0  0  0
    2.8660    2.3317    0.0000 N   0  0  0  0  0  0  0  0  0  0  0  0
    4.9889   -1.4236    0.0000 C   0  0  2  0  0  0  0  0  0  0  0  0
    4.4026   -2.2336    0.0000 C   0  0  0  0  0  0  0  0  0  0  0  0
    5.9405   -1.7310    0.0000 C   0  0  0  0  0  0  0  0  0  0  0  0
    4.9917   -3.0416    0.0000 C   0  0  0  0  0  0  0  0  0  0  0  0
    3.7320   -0.1683    0.0000 C   0  0  0  0  0  0  0  0  0  0  0  0
    5.2619    0.3317    0.0000 C   0  0  0  0  0  0  0  0  0  0  0  0
    3.7320    0.8317    0.0000 C   0  0  0  0  0  0  0  0  0  0  0  0
    6.7523   -3.3173    0.0000 C   0  0  0  0  0  0  0  0  0  0  0  0
    4.9889    2.0869    0.0000 C   0  0  0  0  0  0  0  0  0  0  0  0
    2.8660    1.3317    0.0000 C   0  0  0  0  0  0  0  0  0  0  0  0
    2.0000   -0.1683    0.0000 C   0  0  0  0  0  0  0  0  0  0  0  0
    4.3211    2.8312    0.0000 C   0  0  0  0  0  0  0  0  0  0  0  0
    5.9674    2.2931    0.0000 C   0  0  0  0  0  0  0  0  0  0  0  0
    6.6495   -4.3120    0.0000 C   0  0  0  0  0  0  0  0  0  0  0  0
    4.6318    3.7817    0.0000 C   0  0  0  0  0  0  0  0  0  0  0  0
    6.2781    3.2437    0.0000 C   0  0  0  0  0  0  0  0  0  0  0  0
    5.6103    3.9880    0.0000 C   0  0  0  0  0  0  0  0  0  0  0  0
    6.5467   -5.3067    0.0000 C   0  0  0  0  0  0  0  0  0  0  0  0
    6.4439   -6.3014    0.0000 C   0  0  0  0  0  0  0  0  0  0  0  0
    6.8994    5.1447    0.0000 C   0  0  0  0  0  0  0  0  0  0  0  0
    7.2101    6.0952    0.0000 C   0  0  0  0  0  0  0  0  0  0  0  0
    7.5673    4.4004    0.0000 C   0  0  0  0  0  0  0  0  0  0  0  0
    8.1886    6.3014    0.0000 C   0  0  0  0  0  0  0  0  0  0  0  0
    8.5458    4.6066    0.0000 C   0  0  0  0  0  0  0  0  0  0  0  0
    8.8564    5.5571    0.0000 C   0  0  0  0  0  0  0  0  0  0  0  0
    5.4266   -0.9844    0.0000 H   0  0  0  0  0  0  0  0  0  0  0  0
    3.9411   -1.8196    0.0000 H   0  0  0  0  0  0  0  0  0  0  0  0
    3.9425   -2.6493    0.0000 H   0  0  0  0  0  0  0  0  0  0  0  0
    6.5572   -1.7947    0.0000 H   0  0  0  0  0  0  0  0  0  0  0  0
    6.0684   -1.1243    0.0000 H   0  0  0  0  0  0  0  0  0  0  0  0
    4.4553   -3.3525    0.0000 H   0  0  0  0  0  0  0  0  0  0  0  0
    5.2449   -3.6076    0.0000 H   0  0  0  0  0  0  0  0  0  0  0  0
    1.4631   -0.4783    0.0000 H   0  0  0  0  0  0  0  0  0  0  0  0
    3.7144    2.7034    0.0000 H   0  0  0  0  0  0  0  0  0  0  0  0
    6.3815    1.8317    0.0000 H   0  0  0  0  0  0  0  0  0  0  0  0
    2.3291    2.6417    0.0000 H   0  0  0  0  0  0  0  0  0  0  0  0
    3.4030    2.6417    0.0000 H   0  0  0  0  0  0  0  0  0  0  0  0
    4.2177    4.2432    0.0000 H   0  0  0  0  0  0  0  0  0  0  0  0
    6.8848    3.3715    0.0000 H   0  0  0  0  0  0  0  0  0  0  0  0
    5.8271   -6.2377    0.0000 H   0  0  0  0  0  0  0  0  0  0  0  0
    6.3801   -6.9182    0.0000 H   0  0  0  0  0  0  0  0  0  0  0  0
    7.0606   -6.3652    0.0000 H   0  0  0  0  0  0  0  0  0  0  0  0
    6.7960    6.5567    0.0000 H   0  0  0  0  0  0  0  0  0  0  0  0
    7.3747    3.8111    0.0000 H   0  0  0  0  0  0  0  0  0  0  0  0
    8.3812    6.8908    0.0000 H   0  0  0  0  0  0  0  0  0  0  0  0
    8.9598    4.1452    0.0000 H   0  0  0  0  0  0  0  0  0  0  0  0
    9.4631    5.6850    0.0000 H   0  0  0  0  0  0  0  0  0  0  0  0
  1 15  2  0  0  0  0
  2 17  2  0  0  0  0
  3 26  1  0  0  0  0
  3 29  1  0  0  0  0
 10  4  1  1  0  0  0
  4 14  1  0  0  0  0
  4 15  1  0  0  0  0
  5 12  1  0  0  0  0
  5 13  1  0  0  0  0
  5 17  1  0  0  0  0
  6 15  1  0  0  0  0
  6 16  1  0  0  0  0
  6 18  1  0  0  0  0
  7 14  2  0  0  0  0
  7 20  1  0  0  0  0
  8 19  1  0  0  0  0
  8 20  2  0  0  0  0
  9 19  1  0  0  0  0
  9 45  1  0  0  0  0
  9 46  1  0  0  0  0
 10 11  1  0  0  0  0
 10 12  1  0  0  0  0
 10 35  1  0  0  0  0
 11 13  1  0  0  0  0
 11 36  1  0  0  0  0
 11 37  1  0  0  0  0
 12 38  1  0  0  0  0
 12 39  1  0  0  0  0
 13 40  1  0  0  0  0
 13 41  1  0  0  0  0
 14 16  1  0  0  0  0
 16 19  2  0  0  0  0
 17 23  1  0  0  0  0
 18 21  2  0  0  0  0
 18 22  1  0  0  0  0
 20 42  1  0  0  0  0
 21 24  1  0  0  0  0
 21 43  1  0  0  0  0
 22 25  2  0  0  0  0
 22 44  1  0  0  0  0
 23 27  3  0  0  0  0
 24 26  2  0  0  0  0
 24 47  1  0  0  0  0
 25 26  1  0  0  0  0
 25 48  1  0  0  0  0
 27 28  1  0  0  0  0
 28 49  1  0  0  0  0
 28 50  1  0  0  0  0
 28 51  1  0  0  0  0
 29 30  2  0  0  0  0
 29 31  1  0  0  0  0
 30 32  1  0  0  0  0
 30 52  1  0  0  0  0
 31 33  2  0  0  0  0
 31 53  1  0  0  0  0
 32 34  2  0  0  0  0
 32 54  1  0  0  0  0
 33 34  1  0  0  0  0
 33 55  1  0  0  0  0
 34 56  1  0  0  0  0
M  END
> <PUBCHEM_COMPOUND_CID>
54755438

> <PUBCHEM_COMPOUND_CANONICALIZED>
1

> <PUBCHEM_CACTVS_COMPLEXITY>
825

> <PUBCHEM_CACTVS_HBOND_ACCEPTOR>
6

> <PUBCHEM_CACTVS_HBOND_DONOR>
1

> <PUBCHEM_CACTVS_ROTATABLE_BOND>
4

> <PUBCHEM_CACTVS_SUBSKEYS>
AAADceB7sAAAAAAAAAAAAAAAAAAAAWLAAAA8YIAAAAAAAFgB0AAAHgAQAAAACCzBkgQ39pdIFADoECdzdACCiCkxMqAJ2CAufJiMbmLE+duWPCjsxxPI6CewQAAAAEAAAAAAAAAAgAAAAAAAAAAAAAAAAA==

> <PUBCHEM_IUPAC_OPENEYE_NAME>
6-amino-9-[(3R)-1-but-2-ynoylpyrrolidin-3-yl]-7-(4-phenoxyphenyl)purin-8-one

> <PUBCHEM_IUPAC_CAS_NAME>
6-amino-9-[(3R)-1-(1-oxobut-2-ynyl)-3-pyrrolidinyl]-7-(4-phenoxyphenyl)-8-purinone

> <PUBCHEM_IUPAC_NAME_MARKUP>
6-amino-9-[(3<I>R</I>)-1-but-2-ynoylpyrrolidin-3-yl]-7-(4-phenoxyphenyl)purin-8-one

> <PUBCHEM_IUPAC_NAME>
6-amino-9-[(3R)-1-but-2-ynoylpyrrolidin-3-yl]-7-(4-phenoxyphenyl)purin-8-one

> <PUBCHEM_IUPAC_SYSTEMATIC_NAME>
6-azanyl-9-[(3R)-1-but-2-ynoylpyrrolidin-3-yl]-7-(4-phenoxyphenyl)purin-8-one

> <PUBCHEM_IUPAC_TRADITIONAL_NAME>
6-amino-9-[(3R)-1-but-2-ynoylpyrrolidin-3-yl]-7-(4-phenoxyphenyl)purin-8-one

> <PUBCHEM_IUPAC_INCHI>
InChI=1S/C25H22N6O3/c1-2-6-21(32)29-14-13-18(15-29)31-24-22(23(26)27-16-28-24)30(25(31)33)17-9-11-20(12-10-17)34-19-7-4-3-5-8-19/h3-5,7-12,16,18H,13-15H2,1H3,(H2,26,27,28)/t18-/m1/s1

> <PUBCHEM_IUPAC_INCHIKEY>
SEJLPXCPMNSRAM-GOSISDBHSA-N

> <PUBCHEM_XLOGP3_AA>
3

> <PUBCHEM_EXACT_MASS>
454.17533859

> <PUBCHEM_MOLECULAR_FORMULA>
C25H22N6O3

> <PUBCHEM_MOLECULAR_WEIGHT>
454.5

> <PUBCHEM_OPENEYE_CAN_SMILES>
CC#CC(=O)N1CCC(C1)N2C3=NC=NC(=C3N(C2=O)C4=CC=C(C=C4)OC5=CC=CC=C5)N

> <PUBCHEM_OPENEYE_ISO_SMILES>
CC#CC(=O)N1CC[C@H](C1)N2C3=NC=NC(=C3N(C2=O)C4=CC=C(C=C4)OC5=CC=CC=C5)N

> <PUBCHEM_CACTVS_TPSA>
105

> <PUBCHEM_MONOISOTOPIC_WEIGHT>
454.17533859

> <PUBCHEM_TOTAL_CHARGE>
0

> <PUBCHEM_HEAVY_ATOM_COUNT>
34

> <PUBCHEM_ATOM_DEF_STEREO_COUNT>
1

> <PUBCHEM_ATOM_UDEF_STEREO_COUNT>
0

> <PUBCHEM_BOND_DEF_STEREO_COUNT>
0

> <PUBCHEM_BOND_UDEF_STEREO_COUNT>
0

> <PUBCHEM_ISOTOPIC_ATOM_COUNT>
0

> <PUBCHEM_COMPONENT_COUNT>
1

> <PUBCHEM_CACTVS_TAUTO_COUNT>
-1

> <PUBCHEM_COORDINATE_TYPE>
1
5
255

> <PUBCHEM_BONDANNOTATIONS>
14  16  8
16  19  8
18  21  8
18  22  8
21  24  8
22  25  8
24  26  8
25  26  8
29  30  8
29  31  8
30  32  8
31  33  8
32  34  8
33  34  8
10  4  5
4  14  8
4  15  8
6  15  8
6  16  8
7  14  8
7  20  8
8  19  8
8  20  8

$$$$
44177328
  -OEChem-11282412102D

 37 40  0     0  0  0  0  0  0999 V2000
    8.1424    0.0403    0.0000 N   0  0  0  0  0  0  0  0  0  0  0  0
    4.5981    1.8450    0.0000 N   0  0  0  0  0  0  0  0  0  0  0  0
    3.7320    0.3450    0.0000 N   0  0  0  0  0  0  0  0  0  0  0  0
    2.0000    1.3450    0.0000 N   0  0  0  0  0  0  0  0  0  0  0  0
    2.8660    2.8450    0.0000 N   0  0  0  0  0  0  0  0  0  0  0  0
    2.8660   -3.1550    0.0000 N   0  0  0  0  0  0  0  0  0  0  0  0
    7.1962    1.3450    0.0000 C   0  0  0  0  0  0  0  0  0  0  0  0
    7.1962    0.3450    0.0000 C   0  0  0  0  0  0  0  0  0  0  0  0
    5.4641    1.3450    0.0000 C   0  0  0  0  0  0  0  0  0  0  0  0
    6.3301    1.8450    0.0000 C   0  0  0  0  0  0  0  0  0  0  0  0
    6.3301   -0.1550    0.0000 C   0  0  0  0  0  0  0  0  0  0  0  0
    5.4641    0.3450    0.0000 C   0  0  0  0  0  0  0  0  0  0  0  0
    8.1424    1.6497    0.0000 C   0  0  0  0  0  0  0  0  0  0  0  0
    8.7260    0.8450    0.0000 C   0  0  0  0  0  0  0  0  0  0  0  0
    3.7320    1.3450    0.0000 C   0  0  0  0  0  0  0  0  0  0  0  0
    2.8660   -0.1550    0.0000 C   0  0  0  0  0  0  0  0  0  0  0  0
    2.8660    1.8450    0.0000 C   0  0  0  0  0  0  0  0  0  0  0  0
    2.8660   -1.1550    0.0000 C   0  0  0  0  0  0  0  0  0  0  0  0
    2.0000    0.3450    0.0000 C   0  0  0  0  0  0  0  0  0  0  0  0
    2.0000   -1.6550    0.0000 C   0  0  0  0  0  0  0  0  0  0  0  0
    3.7320   -1.6550    0.0000 C   0  0  0  0  0  0  0  0  0  0  0  0
    2.0000   -2.6550    0.0000 C   0  0  0  0  0  0  0  0  0  0  0  0
    3.7320   -2.6550    0.0000 C   0  0  0  0  0  0  0  0  0  0  0  0
    6.3301    2.4650    0.0000 H   0  0  0  0  0  0  0  0  0  0  0  0
    6.3301   -0.7750    0.0000 H   0  0  0  0  0  0  0  0  0  0  0  0
    4.9272    0.0350    0.0000 H   0  0  0  0  0  0  0  0  0  0  0  0
    8.3350    2.2391    0.0000 H   0  0  0  0  0  0  0  0  0  0  0  0
    8.3350   -0.5491    0.0000 H   0  0  0  0  0  0  0  0  0  0  0  0
    4.5981    2.4650    0.0000 H   0  0  0  0  0  0  0  0  0  0  0  0
    9.3460    0.8450    0.0000 H   0  0  0  0  0  0  0  0  0  0  0  0
    1.4631    0.0350    0.0000 H   0  0  0  0  0  0  0  0  0  0  0  0
    1.4631   -1.3450    0.0000 H   0  0  0  0  0  0  0  0  0  0  0  0
    4.2690   -1.3450    0.0000 H   0  0  0  0  0  0  0  0  0  0  0  0
    2.3291    3.1550    0.0000 H   0  0  0  0  0  0  0  0  0  0  0  0
    3.4030    3.1550    0.0000 H   0  0  0  0  0  0  0  0  0  0  0  0
    1.4631   -2.9650    0.0000 H   0  0  0  0  0  0  0  0  0  0  0  0
    4.2690   -2.9650    0.0000 H   0  0  0  0  0  0  0  0  0  0  0  0
  1  8  1  0  0  0  0
  1 14  1  0  0  0  0
  1 28  1  0  0  0  0
  2  9  1  0  0  0  0
  2 15  1  0  0  0  0
  2 29  1  0  0  0  0
  3 15  2  0  0  0  0
  3 16  1  0  0  0  0
  4 17  2  0  0  0  0
  4 19  1  0  0  0  0
  5 17  1  0  0  0  0
  5 34  1  0  0  0  0
  5 35  1  0  0  0  0
  6 22  2  0  0  0  0
  6 23  1  0  0  0  0
  7  8  2  0  0  0  0
  7 10  1  0  0  0  0
  7 13  1  0  0  0  0
  8 11  1  0  0  0  0
  9 10  2  0  0  0  0
  9 12  1  0  0  0  0
 10 24  1  0  0  0  0
 11 12  2  0  0  0  0
 11 25  1  0  0  0  0
 12 26  1  0  0  0  0
 13 14  2  0  0  0  0
 13 27  1  0  0  0  0
 14 30  1  0  0  0  0
 15 17  1  0  0  0  0
 16 18  1  0  0  0  0
 16 19  2  0  0  0  0
 18 20  2  0  0  0  0
 18 21  1  0  0  0  0
 19 31  1  0  0  0  0
 20 22  1  0  0  0  0
 20 32  1  0  0  0  0
 21 23  2  0  0  0  0
 21 33  1  0  0  0  0
 22 36  1  0  0  0  0
 23 37  1  0  0  0  0
M  END
> <PUBCHEM_COMPOUND_CID>
44177328

> <PUBCHEM_COMPOUND_CANONICALIZED>
1

> <PUBCHEM_CACTVS_COMPLEXITY>
385

> <PUBCHEM_CACTVS_HBOND_ACCEPTOR>
5

> <PUBCHEM_CACTVS_HBOND_DONOR>
3

> <PUBCHEM_CACTVS_ROTATABLE_BOND>
3

> <PUBCHEM_CACTVS_SUBSKEYS>
AAADccB7gAAAAAAAAAAAAAAAAAAAAWAAAAA8WIAAAAAAAFgB/gAAHAAQAAAADAjBHgQ98PLJkACgAzZnZACCgC0xEiAJ2aA4dJiIYOLAmZGUIAhokALIyCcQgIAOAACAQAACAAAAAQCAAAQAAAAAAAAAAA==

> <PUBCHEM_IUPAC_OPENEYE_NAME>
N3-(1H-indol-5-yl)-5-(4-pyridyl)pyrazine-2,3-diamine

> <PUBCHEM_IUPAC_CAS_NAME>
N3-(1H-indol-5-yl)-5-pyridin-4-ylpyrazine-2,3-diamine

> <PUBCHEM_IUPAC_NAME_MARKUP>
3-<I>N</I>-(1<I>H</I>-indol-5-yl)-5-pyridin-4-ylpyrazine-2,3-diamine

> <PUBCHEM_IUPAC_NAME>
3-N-(1H-indol-5-yl)-5-pyridin-4-ylpyrazine-2,3-diamine

> <PUBCHEM_IUPAC_SYSTEMATIC_NAME>
N3-(1H-indol-5-yl)-5-pyridin-4-yl-pyrazine-2,3-diamine

> <PUBCHEM_IUPAC_TRADITIONAL_NAME>
[3-amino-6-(4-pyridyl)pyrazin-2-yl]-(1H-indol-5-yl)amine

> <PUBCHEM_IUPAC_INCHI>
InChI=1S/C17H14N6/c18-16-17(22-13-1-2-14-12(9-13)5-8-20-14)23-15(10-21-16)11-3-6-19-7-4-11/h1-10,20H,(H2,18,21)(H,22,23)

> <PUBCHEM_IUPAC_INCHIKEY>
JLRIJKVMMZEKDF-UHFFFAOYSA-N

> <PUBCHEM_XLOGP3_AA>
2

> <PUBCHEM_EXACT_MASS>
302.12799447

> <PUBCHEM_MOLECULAR_FORMULA>
C17H14N6

> <PUBCHEM_MOLECULAR_WEIGHT>
302.33

> <PUBCHEM_OPENEYE_CAN_SMILES>
C1=CC2=C(C=CN2)C=C1NC3=NC(=CN=C3N)C4=CC=NC=C4

> <PUBCHEM_OPENEYE_ISO_SMILES>
C1=CC2=C(C=CN2)C=C1NC3=NC(=CN=C3N)C4=CC=NC=C4

> <PUBCHEM_CACTVS_TPSA>
92.5

> <PUBCHEM_MONOISOTOPIC_WEIGHT>
302.12799447

> <PUBCHEM_TOTAL_CHARGE>
0

> <PUBCHEM_HEAVY_ATOM_COUNT>
23

> <PUBCHEM_ATOM_DEF_STEREO_COUNT>
0

> <PUBCHEM_ATOM_UDEF_STEREO_COUNT>
0

> <PUBCHEM_BOND_DEF_STEREO_COUNT>
0

> <PUBCHEM_BOND_UDEF_STEREO_COUNT>
0

> <PUBCHEM_ISOTOPIC_ATOM_COUNT>
0

> <PUBCHEM_COMPONENT_COUNT>
1

> <PUBCHEM_CACTVS_TAUTO_COUNT>
-1

> <PUBCHEM_COORDINATE_TYPE>
1
5
255

> <PUBCHEM_BONDANNOTATIONS>
1  14  8
1  8  8
11  12  8
13  14  8
15  17  8
16  19  8
18  20  8
18  21  8
20  22  8
21  23  8
3  15  8
3  16  8
4  17  8
4  19  8
6  22  8
6  23  8
7  10  8
7  13  8
7  8  8
8  11  8
9  10  8
9  12  8

$$$$
11620908
  -OEChem-11282412102D

 63 66  0     0  0  0  0  0  0999 V2000
    2.8660    1.4330    0.0000 Cl  0  0  0  0  0  0  0  0  0  0  0  0
    5.4641   -4.0670    0.0000 F   0  0  0  0  0  0  0  0  0  0  0  0
    4.0981   -4.4330    0.0000 F   0  0  0  0  0  0  0  0  0  0  0  0
    5.0981   -2.7010    0.0000 F   0  0  0  0  0  0  0  0  0  0  0  0
   12.9884   -1.0482    0.0000 O   0  0  0  0  0  0  0  0  0  0  0  0
   11.3886    1.0591    0.0000 O   0  0  0  0  0  0  0  0  0  0  0  0
    2.8660   -0.5670    0.0000 O   0  0  0  0  0  0  0  0  0  0  0  0
    8.1424    2.6283    0.0000 N   0  0  0  0  0  0  0  0  0  0  0  0
    9.7422    0.5210    0.0000 N   0  0  0  0  0  0  0  0  0  0  0  0
    6.3301    1.4330    0.0000 N   0  0  0  0  0  0  0  0  0  0  0  0
    6.3301    4.4330    0.0000 N   0  0  0  0  0  0  0  0  0  0  0  0
    5.4641    2.9330    0.0000 N   0  0  0  0  0  0  0  0  0  0  0  0
   12.0099   -0.8419    0.0000 C   0  0  0  0  0  0  0  0  0  0  0  0
    8.4530    1.6778    0.0000 C   0  0  0  0  0  0  0  0  0  0  0  0
   11.0314   -0.6357    0.0000 C   0  0  0  0  0  0  0  0  0  0  0  0
    9.4315    1.4715    0.0000 C   0  0  0  0  0  0  0  0  0  0  0  0
    7.1962    2.9330    0.0000 C   0  0  0  0  0  0  0  0  0  0  0  0
   10.7207    0.3148    0.0000 C   0  0  0  0  0  0  0  0  0  0  0  0
    7.1962    3.9330    0.0000 C   0  0  0  0  0  0  0  0  0  0  0  0
    8.7260    3.4330    0.0000 C   0  0  0  0  0  0  0  0  0  0  0  0
   11.8037   -1.8204    0.0000 C   0  0  0  0  0  0  0  0  0  0  0  0
   12.2161    0.1366    0.0000 C   0  0  0  0  0  0  0  0  0  0  0  0
    6.3301    2.4330    0.0000 C   0  0  0  0  0  0  0  0  0  0  0  0
    8.1424    4.2377    0.0000 C   0  0  0  0  0  0  0  0  0  0  0  0
    5.4641    0.9330    0.0000 C   0  0  0  0  0  0  0  0  0  0  0  0
    5.4641    3.9330    0.0000 C   0  0  0  0  0  0  0  0  0  0  0  0
    4.5981    1.4330    0.0000 C   0  0  0  0  0  0  0  0  0  0  0  0
    5.4641   -0.0670    0.0000 C   0  0  0  0  0  0  0  0  0  0  0  0
    3.7320   -0.0670    0.0000 C   0  0  0  0  0  0  0  0  0  0  0  0
    3.7320    0.9330    0.0000 C   0  0  0  0  0  0  0  0  0  0  0  0
    4.5981   -0.5670    0.0000 C   0  0  0  0  0  0  0  0  0  0  0  0
    2.8660   -1.5670    0.0000 C   0  0  0  0  0  0  0  0  0  0  0  0
    3.7320   -2.0670    0.0000 C   0  0  0  0  0  0  0  0  0  0  0  0
    3.7320   -3.0670    0.0000 C   0  0  0  0  0  0  0  0  0  0  0  0
    2.0000   -2.0670    0.0000 C   0  0  0  0  0  0  0  0  0  0  0  0
    2.8660   -3.5670    0.0000 C   0  0  0  0  0  0  0  0  0  0  0  0
    2.0000   -3.0670    0.0000 C   0  0  0  0  0  0  0  0  0  0  0  0
    4.5981   -3.5670    0.0000 C   0  0  0  0  0  0  0  0  0  0  0  0
    7.8392    1.5904    0.0000 H   0  0  0  0  0  0  0  0  0  0  0  0
    8.4325    1.0581    0.0000 H   0  0  0  0  0  0  0  0  0  0  0  0
   10.4176   -0.7231    0.0000 H   0  0  0  0  0  0  0  0  0  0  0  0
   11.0108   -1.2554    0.0000 H   0  0  0  0  0  0  0  0  0  0  0  0
   10.0454    1.5589    0.0000 H   0  0  0  0  0  0  0  0  0  0  0  0
    9.4521    2.0912    0.0000 H   0  0  0  0  0  0  0  0  0  0  0  0
    9.3281    0.0596    0.0000 H   0  0  0  0  0  0  0  0  0  0  0  0
    9.3460    3.4330    0.0000 H   0  0  0  0  0  0  0  0  0  0  0  0
   11.1970   -1.6926    0.0000 H   0  0  0  0  0  0  0  0  0  0  0  0
   11.6758   -2.4271    0.0000 H   0  0  0  0  0  0  0  0  0  0  0  0
   12.4103   -1.9483    0.0000 H   0  0  0  0  0  0  0  0  0  0  0  0
   12.8228    0.0087    0.0000 H   0  0  0  0  0  0  0  0  0  0  0  0
   12.3440    0.7432    0.0000 H   0  0  0  0  0  0  0  0  0  0  0  0
   11.6094    0.2644    0.0000 H   0  0  0  0  0  0  0  0  0  0  0  0
    8.3350    4.8271    0.0000 H   0  0  0  0  0  0  0  0  0  0  0  0
   13.1810   -1.6375    0.0000 H   0  0  0  0  0  0  0  0  0  0  0  0
    6.8671    1.1230    0.0000 H   0  0  0  0  0  0  0  0  0  0  0  0
    4.9272    4.2430    0.0000 H   0  0  0  0  0  0  0  0  0  0  0  0
    4.5981    2.0530    0.0000 H   0  0  0  0  0  0  0  0  0  0  0  0
    6.0010   -0.3770    0.0000 H   0  0  0  0  0  0  0  0  0  0  0  0
    4.5981   -1.1870    0.0000 H   0  0  0  0  0  0  0  0  0  0  0  0
    4.2690   -1.7570    0.0000 H   0  0  0  0  0  0  0  0  0  0  0  0
    1.4631   -1.7570    0.0000 H   0  0  0  0  0  0  0  0  0  0  0  0
    2.8660   -4.1870    0.0000 H   0  0  0  0  0  0  0  0  0  0  0  0
    1.4631   -3.3770    0.0000 H   0  0  0  0  0  0  0  0  0  0  0  0
  1 30  1  0  0  0  0
  2 38  1  0  0  0  0
  3 38  1  0  0  0  0
  4 38  1  0  0  0  0
  5 13  1  0  0  0  0
  5 54  1  0  0  0  0
  6 18  2  0  0  0  0
  7 29  1  0  0  0  0
  7 32  1  0  0  0  0
  8 14  1  0  0  0  0
  8 17  1  0  0  0  0
  8 20  1  0  0  0  0
  9 16  1  0  0  0  0
  9 18  1  0  0  0  0
  9 45  1  0  0  0  0
 10 23  1  0  0  0  0
 10 25  1  0  0  0  0
 10 55  1  0  0  0  0
 11 19  1  0  0  0  0
 11 26  2  0  0  0  0
 12 23  2  0  0  0  0
 12 26  1  0  0  0  0
 13 15  1  0  0  0  0
 13 21  1  0  0  0  0
 13 22  1  0  0  0  0
 14 16  1  0  0  0  0
 14 39  1  0  0  0  0
 14 40  1  0  0  0  0
 15 18  1  0  0  0  0
 15 41  1  0  0  0  0
 15 42  1  0  0  0  0
 16 43  1  0  0  0  0
 16 44  1  0  0  0  0
 17 19  2  0  0  0  0
 17 23  1  0  0  0  0
 19 24  1  0  0  0  0
 20 24  2  0  0  0  0
 20 46  1  0  0  0  0
 21 47  1  0  0  0  0
 21 48  1  0  0  0  0
 21 49  1  0  0  0  0
 22 50  1  0  0  0  0
 22 51  1  0  0  0  0
 22 52  1  0  0  0  0
 24 53  1  0  0  0  0
 25 27  2  0  0  0  0
 25 28  1  0  0  0  0
 26 56  1  0  0  0  0
 27 30  1  0  0  0  0
 27 57  1  0  0  0  0
 28 31  2  0  0  0  0
 28 58  1  0  0  0  0
 29 30  2  0  0  0  0
 29 31  1  0  0  0  0
 31 59  1  0  0  0  0
 32 33  1  0  0  0  0
 32 35  2  0  0  0  0
 33 34  2  0  0  0  0
 33 60  1  0  0  0  0
 34 36  1  0  0  0  0
 34 38  1  0  0  0  0
 35 37  1  0  0  0  0
 35 61  1  0  0  0  0
 36 37  2  0  0  0  0
 36 62  1  0  0  0  0
 37 63  1  0  0  0  0
M  END
> <PUBCHEM_COMPOUND_CID>
11620908

> <PUBCHEM_COMPOUND_CANONICALIZED>
1

> <PUBCHEM_CACTVS_COMPLEXITY>
792

> <PUBCHEM_CACTVS_HBOND_ACCEPTOR>
9

> <PUBCHEM_CACTVS_HBOND_DONOR>
3

> <PUBCHEM_CACTVS_ROTATABLE_BOND>
9

> <PUBCHEM_CACTVS_SUBSKEYS>
AAADceB7sYAEAAAAAAAAAAAAAAAAAWAAAAA8YIAAAAAAAFgB/AAAHwIQCAAADE7BnjQ/9rfMFgCoAzd3dACCiC0xN+AJ2KE+f5iMbvfF+9uWfCju9hPI6CewwBAOAEABAAIACAAAgAIABAAQAAAAAAAAAA==

> <PUBCHEM_IUPAC_OPENEYE_NAME>
N-[2-[4-[3-chloro-4-[3-(trifluoromethyl)phenoxy]anilino]pyrrolo[3,2-d]pyrimidin-5-yl]ethyl]-3-hydroxy-3-methyl-butanamide

> <PUBCHEM_IUPAC_CAS_NAME>
N-[2-[4-[3-chloro-4-[3-(trifluoromethyl)phenoxy]anilino]-5-pyrrolo[3,2-d]pyrimidinyl]ethyl]-3-hydroxy-3-methylbutanamide

> <PUBCHEM_IUPAC_NAME_MARKUP>
<I>N</I>-[2-[4-[3-chloro-4-[3-(trifluoromethyl)phenoxy]anilino]pyrrolo[3,2-d]pyrimidin-5-yl]ethyl]-3-hydroxy-3-methylbutanamide

> <PUBCHEM_IUPAC_NAME>
N-[2-[4-[3-chloro-4-[3-(trifluoromethyl)phenoxy]anilino]pyrrolo[3,2-d]pyrimidin-5-yl]ethyl]-3-hydroxy-3-methylbutanamide

> <PUBCHEM_IUPAC_SYSTEMATIC_NAME>
N-[2-[4-[[3-chloranyl-4-[3-(trifluoromethyl)phenoxy]phenyl]amino]pyrrolo[3,2-d]pyrimidin-5-yl]ethyl]-3-methyl-3-oxidanyl-butanamide

> <PUBCHEM_IUPAC_TRADITIONAL_NAME>
N-[2-[4-[3-chloro-4-[3-(trifluoromethyl)phenoxy]anilino]pyrrolo[3,2-d]pyrimidin-5-yl]ethyl]-3-hydroxy-3-methyl-butyramide

> <PUBCHEM_IUPAC_INCHI>
InChI=1S/C26H25ClF3N5O3/c1-25(2,37)14-22(36)31-9-11-35-10-8-20-23(35)24(33-15-32-20)34-17-6-7-21(19(27)13-17)38-18-5-3-4-16(12-18)26(28,29)30/h3-8,10,12-13,15,37H,9,11,14H2,1-2H3,(H,31,36)(H,32,33,34)

> <PUBCHEM_IUPAC_INCHIKEY>
ZYQXEVJIFYIBHZ-UHFFFAOYSA-N

> <PUBCHEM_XLOGP3_AA>
4.4

> <PUBCHEM_EXACT_MASS>
547.1598019

> <PUBCHEM_MOLECULAR_FORMULA>
C26H25ClF3N5O3

> <PUBCHEM_MOLECULAR_WEIGHT>
548.0

> <PUBCHEM_OPENEYE_CAN_SMILES>
CC(C)(CC(=O)NCCN1C=CC2=C1C(=NC=N2)NC3=CC(=C(C=C3)OC4=CC=CC(=C4)C(F)(F)F)Cl)O

> <PUBCHEM_OPENEYE_ISO_SMILES>
CC(C)(CC(=O)NCCN1C=CC2=C1C(=NC=N2)NC3=CC(=C(C=C3)OC4=CC=CC(=C4)C(F)(F)F)Cl)O

> <PUBCHEM_CACTVS_TPSA>
101

> <PUBCHEM_MONOISOTOPIC_WEIGHT>
547.1598019

> <PUBCHEM_TOTAL_CHARGE>
0

> <PUBCHEM_HEAVY_ATOM_COUNT>
38

> <PUBCHEM_ATOM_DEF_STEREO_COUNT>
0

> <PUBCHEM_ATOM_UDEF_STEREO_COUNT>
0

> <PUBCHEM_BOND_DEF_STEREO_COUNT>
0

> <PUBCHEM_BOND_UDEF_STEREO_COUNT>
0

> <PUBCHEM_ISOTOPIC_ATOM_COUNT>
0

> <PUBCHEM_COMPONENT_COUNT>
1

> <PUBCHEM_CACTVS_TAUTO_COUNT>
-1

> <PUBCHEM_COORDINATE_TYPE>
1
5
255

> <PUBCHEM_BONDANNOTATIONS>
11  19  8
11  26  8
12  23  8
12  26  8
17  19  8
17  23  8
19  24  8
20  24  8
25  27  8
25  28  8
27  30  8
28  31  8
29  30  8
29  31  8
32  33  8
32  35  8
33  34  8
34  36  8
35  37  8
36  37  8
8  17  8
8  20  8

$$$$
137455315
  -OEChem-11282412102D

 50 53  0     1  0  0  0  0  0999 V2000
   10.3659    1.3186    0.0000 F   0  0  0  0  0  0  0  0  0  0  0  0
    6.5752   -0.1609    0.0000 O   0  0  0  0  0  0  0  0  0  0  0  0
    3.7631   -3.5722    0.0000 O   0  0  0  0  0  0  0  0  0  0  0  0
    5.8775    1.7040    0.0000 N   0  0  3  0  0  0  0  0  0  0  0  0
    3.7465   -0.2130    0.0000 N   0  0  0  0  0  0  0  0  0  0  0  0
    5.0978   -2.4333    0.0000 N   0  0  0  0  0  0  0  0  0  0  0  0
    5.4786   -0.2130    0.0000 N   0  0  0  0  0  0  0  0  0  0  0  0
    3.0095   -0.8801    0.0000 N   0  0  0  0  0  0  0  0  0  0  0  0
    2.4750   -2.1299    0.0000 N   0  0  0  0  0  0  0  0  0  0  0  0
    8.8898    3.5722    0.0000 N   0  0  0  0  0  0  0  0  0  0  0  0
    6.8711    1.8171    0.0000 C   0  0  0  0  0  0  0  0  0  0  0  0
    7.6536    1.1944    0.0000 C   0  0  0  0  0  0  0  0  0  0  0  0
    6.4272   -1.1499    0.0000 C   0  0  2  0  0  0  0  0  0  0  0  0
    5.4786    0.7870    0.0000 C   0  0  0  0  0  0  0  0  0  0  0  0
    5.2828    2.5080    0.0000 C   0  0  0  0  0  0  0  0  0  0  0  0
    5.4967   -1.5163    0.0000 C   0  0  0  0  0  0  0  0  0  0  0  0
    7.5056    0.2054    0.0000 C   0  0  0  0  0  0  0  0  0  0  0  0
    4.6126   -0.7130    0.0000 C   0  0  0  0  0  0  0  0  0  0  0  0
    4.4034   -1.6848    0.0000 C   0  0  0  0  0  0  0  0  0  0  0  0
    8.6168    1.5910    0.0000 C   0  0  0  0  0  0  0  0  0  0  0  0
    4.6126    1.2870    0.0000 C   0  0  0  0  0  0  0  0  0  0  0  0
    7.2097   -1.7725    0.0000 C   0  0  0  0  0  0  0  0  0  0  0  0
    4.0045   -2.6018    0.0000 C   0  0  0  0  0  0  0  0  0  0  0  0
    3.7465    0.7870    0.0000 C   0  0  0  0  0  0  0  0  0  0  0  0
    3.4146   -1.7878    0.0000 C   0  0  0  0  0  0  0  0  0  0  0  0
    8.3106   -0.4556    0.0000 C   0  0  0  0  0  0  0  0  0  0  0  0
    5.6817    3.4250    0.0000 C   0  0  0  0  0  0  0  0  0  0  0  0
    9.4369    0.9487    0.0000 C   0  0  0  0  0  0  0  0  0  0  0  0
    9.2827   -0.0815    0.0000 C   0  0  0  0  0  0  0  0  0  0  0  0
    8.7533    2.5816    0.0000 C   0  0  0  0  0  0  0  0  0  0  0  0
    7.3695    2.1858    0.0000 H   0  0  0  0  0  0  0  0  0  0  0  0
    6.6439    2.3940    0.0000 H   0  0  0  0  0  0  0  0  0  0  0  0
    7.0041   -0.9228    0.0000 H   0  0  0  0  0  0  0  0  0  0  0  0
    4.7658    2.8502    0.0000 H   0  0  0  0  0  0  0  0  0  0  0  0
    4.8559    2.0583    0.0000 H   0  0  0  0  0  0  0  0  0  0  0  0
    5.4266   -0.9002    0.0000 H   0  0  0  0  0  0  0  0  0  0  0  0
    4.8835   -1.4245    0.0000 H   0  0  0  0  0  0  0  0  0  0  0  0
    4.6126    1.9070    0.0000 H   0  0  0  0  0  0  0  0  0  0  0  0
    5.5195   -2.8878    0.0000 H   0  0  0  0  0  0  0  0  0  0  0  0
    6.8237   -2.2577    0.0000 H   0  0  0  0  0  0  0  0  0  0  0  0
    7.6949   -2.1586    0.0000 H   0  0  0  0  0  0  0  0  0  0  0  0
    7.5957   -1.2874    0.0000 H   0  0  0  0  0  0  0  0  0  0  0  0
    3.2096    1.0970    0.0000 H   0  0  0  0  0  0  0  0  0  0  0  0
    8.2118   -1.0677    0.0000 H   0  0  0  0  0  0  0  0  0  0  0  0
    6.2502    3.1777    0.0000 H   0  0  0  0  0  0  0  0  0  0  0  0
    5.9290    3.9935    0.0000 H   0  0  0  0  0  0  0  0  0  0  0  0
    5.1131    3.6723    0.0000 H   0  0  0  0  0  0  0  0  0  0  0  0
    9.7664   -0.4694    0.0000 H   0  0  0  0  0  0  0  0  0  0  0  0
    2.0000   -1.7313    0.0000 H   0  0  0  0  0  0  0  0  0  0  0  0
    2.3673   -2.7405    0.0000 H   0  0  0  0  0  0  0  0  0  0  0  0
  1 28  1  0  0  0  0
  2 13  1  0  0  0  0
  2 17  1  0  0  0  0
  3 23  2  0  0  0  0
  4 11  1  0  0  0  0
  4 14  1  0  0  0  0
  4 15  1  0  0  0  0
  5  8  1  0  0  0  0
  5 18  1  0  0  0  0
  5 24  1  0  0  0  0
  6 16  1  0  0  0  0
  6 23  1  0  0  0  0
  6 39  1  0  0  0  0
  7 14  2  0  0  0  0
  7 18  1  0  0  0  0
  8 25  2  0  0  0  0
  9 25  1  0  0  0  0
  9 49  1  0  0  0  0
  9 50  1  0  0  0  0
 10 30  3  0  0  0  0
 11 12  1  0  0  0  0
 11 31  1  0  0  0  0
 11 32  1  0  0  0  0
 12 17  2  0  0  0  0
 12 20  1  0  0  0  0
 13 16  1  0  0  0  0
 13 22  1  1  0  0  0
 13 33  1  0  0  0  0
 14 21  1  0  0  0  0
 15 27  1  0  0  0  0
 15 34  1  0  0  0  0
 15 35  1  0  0  0  0
 16 36  1  0  0  0  0
 16 37  1  0  0  0  0
 17 26  1  0  0  0  0
 18 19  2  0  0  0  0
 19 23  1  0  0  0  0
 19 25  1  0  0  0  0
 20 28  2  0  0  0  0
 20 30  1  0  0  0  0
 21 24  2  0  0  0  0
 21 38  1  0  0  0  0
 22 40  1  0  0  0  0
 22 41  1  0  0  0  0
 22 42  1  0  0  0  0
 24 43  1  0  0  0  0
 26 29  2  0  0  0  0
 26 44  1  0  0  0  0
 27 45  1  0  0  0  0
 27 46  1  0  0  0  0
 27 47  1  0  0  0  0
 28 29  1  0  0  0  0
 29 48  1  0  0  0  0
M  END
> <PUBCHEM_COMPOUND_CID>
137455315

> <PUBCHEM_COMPOUND_CANONICALIZED>
1

> <PUBCHEM_CACTVS_COMPLEXITY>
687

> <PUBCHEM_CACTVS_HBOND_ACCEPTOR>
8

> <PUBCHEM_CACTVS_HBOND_DONOR>
2

> <PUBCHEM_CACTVS_ROTATABLE_BOND>
1

> <PUBCHEM_CACTVS_SUBSKEYS>
AAADceB7sQAAAAAAAAAAAAAAAAAAAWAAAAA8QAAAAAAAAFgB8AAAHwAYAAAADBThmw4/tp/IFAC6BjN3dACyjCs1oqAd2KE+bNiOrurE+FuHvKj+3hPYqG+QwLAOgAABAAAYAAAAAAIAADAAAAAAAAAAAA==

> <PUBCHEM_IUPAC_OPENEYE_NAME>
(11S)-16-amino-2-ethyl-6-fluoro-11-methyl-14-oxo-10-oxa-2,13,17,18,21-pentazatetracyclo[13.5.2.04,9.018,22]docosa-1(21),4(9),5,7,15(22),16,19-heptaene-5-carbonitrile

> <PUBCHEM_IUPAC_CAS_NAME>
(11S)-16-amino-2-ethyl-6-fluoro-11-methyl-14-oxo-10-oxa-2,13,17,18,21-pentazatetracyclo[13.5.2.04,9.018,22]docosa-1(21),4(9),5,7,15(22),16,19-heptaene-5-carbonitrile

> <PUBCHEM_IUPAC_NAME_MARKUP>
(11<I>S</I>)-16-amino-2-ethyl-6-fluoro-11-methyl-14-oxo-10-oxa-2,13,17,18,21-pentazatetracyclo[13.5.2.0<SUP>4,9</SUP>.0<SUP>18,22</SUP>]docosa-1(21),4(9),5,7,15(22),16,19-heptaene-5-carbonitrile

> <PUBCHEM_IUPAC_NAME>
(11S)-16-amino-2-ethyl-6-fluoro-11-methyl-14-oxo-10-oxa-2,13,17,18,21-pentazatetracyclo[13.5.2.04,9.018,22]docosa-1(21),4(9),5,7,15(22),16,19-heptaene-5-carbonitrile

> <PUBCHEM_IUPAC_SYSTEMATIC_NAME>
(11S)-16-azanyl-2-ethyl-6-fluoranyl-11-methyl-14-oxidanylidene-10-oxa-2,13,17,18,21-pentazatetracyclo[13.5.2.04,9.018,22]docosa-1(21),4(9),5,7,15(22),16,19-heptaene-5-carbonitrile

> <PUBCHEM_IUPAC_TRADITIONAL_NAME>
(11S)-16-amino-2-ethyl-6-fluoro-14-keto-11-methyl-10-oxa-2,13,17,18,21-pentazatetracyclo[13.5.2.04,9.018,22]docosa-1(21),4(9),5,7,15(22),16,19-heptaene-5-carbonitrile

> <PUBCHEM_IUPAC_INCHI>
InChI=1S/C20H20FN7O2/c1-3-27-10-13-12(8-22)14(21)4-5-15(13)30-11(2)9-24-20(29)17-18(23)26-28-7-6-16(27)25-19(17)28/h4-7,11H,3,9-10H2,1-2H3,(H2,23,26)(H,24,29)/t11-/m0/s1

> <PUBCHEM_IUPAC_INCHIKEY>
UUDPUQDMSHQSKH-NSHDSACASA-N

> <PUBCHEM_XLOGP3_AA>
2.1

> <PUBCHEM_EXACT_MASS>
409.16625107

> <PUBCHEM_MOLECULAR_FORMULA>
C20H20FN7O2

> <PUBCHEM_MOLECULAR_WEIGHT>
409.4

> <PUBCHEM_OPENEYE_CAN_SMILES>
CCN1CC2=C(C=CC(=C2C#N)F)OC(CNC(=O)C3=C4N=C1C=CN4N=C3N)C

> <PUBCHEM_OPENEYE_ISO_SMILES>
CCN1CC2=C(C=CC(=C2C#N)F)O[C@H](CNC(=O)C3=C4N=C1C=CN4N=C3N)C

> <PUBCHEM_CACTVS_TPSA>
122

> <PUBCHEM_MONOISOTOPIC_WEIGHT>
409.16625107

> <PUBCHEM_TOTAL_CHARGE>
0

> <PUBCHEM_HEAVY_ATOM_COUNT>
30

> <PUBCHEM_ATOM_DEF_STEREO_COUNT>
1

> <PUBCHEM_ATOM_UDEF_STEREO_COUNT>
0

> <PUBCHEM_BOND_DEF_STEREO_COUNT>
0

> <PUBCHEM_BOND_UDEF_STEREO_COUNT>
0

> <PUBCHEM_ISOTOPIC_ATOM_COUNT>
0

> <PUBCHEM_COMPONENT_COUNT>
1

> <PUBCHEM_CACTVS_TAUTO_COUNT>
-1

> <PUBCHEM_COORDINATE_TYPE>
1
5
255

> <PUBCHEM_BONDANNOTATIONS>
12  17  8
12  20  8
13  22  5
14  21  8
17  26  8
18  19  8
19  25  8
20  28  8
21  24  8
26  29  8
28  29  8
5  18  8
5  24  8
5  8  8
7  14  8
7  18  8
8  25  8

$$$$
16659841
  -OEChem-11282412102D

 38 40  0     1  0  0  0  0  0999 V2000
    2.8644    2.6739    0.0000 Cl  0  0  0  0  0  0  0  0  0  0  0  0
   10.6587   -0.8261    0.0000 F   0  0  0  0  0  0  0  0  0  0  0  0
    6.3285    0.6739    0.0000 N   0  0  0  0  0  0  0  0  0  0  0  0
    2.8644    0.6739    0.0000 N   0  0  0  0  0  0  0  0  0  0  0  0
    4.5965    0.6739    0.0000 N   0  0  0  0  0  0  0  0  0  0  0  0
    8.9266    1.1739    0.0000 N   0  0  0  0  0  0  0  0  0  0  0  0
    8.0606   -0.3261    0.0000 N   0  0  0  0  0  0  0  0  0  0  0  0
    5.4625    2.1739    0.0000 N   0  0  0  0  0  0  0  0  0  0  0  0
    2.3644   -1.8649    0.0000 N   0  0  0  0  0  0  0  0  0  0  0  0
    2.0554   -0.9139    0.0000 N   0  0  0  0  0  0  0  0  0  0  0  0
    7.1946    1.1739    0.0000 C   0  0  1  0  0  0  0  0  0  0  0  0
    7.1946    2.1739    0.0000 C   0  0  0  0  0  0  0  0  0  0  0  0
    8.0606    0.6739    0.0000 C   0  0  0  0  0  0  0  0  0  0  0  0
    5.4625    1.1739    0.0000 C   0  0  0  0  0  0  0  0  0  0  0  0
    3.7304    1.1739    0.0000 C   0  0  0  0  0  0  0  0  0  0  0  0
    2.8644   -0.3261    0.0000 C   0  0  0  0  0  0  0  0  0  0  0  0
    3.3644   -1.8649    0.0000 C   0  0  0  0  0  0  0  0  0  0  0  0
    3.6734   -0.9139    0.0000 C   0  0  0  0  0  0  0  0  0  0  0  0
    3.7304    2.1739    0.0000 C   0  0  0  0  0  0  0  0  0  0  0  0
    4.5965    2.6739    0.0000 C   0  0  0  0  0  0  0  0  0  0  0  0
    3.9522   -2.6739    0.0000 C   0  0  0  0  0  0  0  0  0  0  0  0
    9.7926    0.6739    0.0000 C   0  0  0  0  0  0  0  0  0  0  0  0
    8.9266   -0.8261    0.0000 C   0  0  0  0  0  0  0  0  0  0  0  0
    9.7926   -0.3261    0.0000 C   0  0  0  0  0  0  0  0  0  0  0  0
    7.1946    0.5539    0.0000 H   0  0  0  0  0  0  0  0  0  0  0  0
    6.3285    0.0539    0.0000 H   0  0  0  0  0  0  0  0  0  0  0  0
    7.8146    2.1739    0.0000 H   0  0  0  0  0  0  0  0  0  0  0  0
    7.1946    2.7939    0.0000 H   0  0  0  0  0  0  0  0  0  0  0  0
    6.5746    2.1739    0.0000 H   0  0  0  0  0  0  0  0  0  0  0  0
    2.3275    0.9839    0.0000 H   0  0  0  0  0  0  0  0  0  0  0  0
    4.2631   -0.7223    0.0000 H   0  0  0  0  0  0  0  0  0  0  0  0
    2.0000   -2.3665    0.0000 H   0  0  0  0  0  0  0  0  0  0  0  0
    4.5965    3.2939    0.0000 H   0  0  0  0  0  0  0  0  0  0  0  0
    3.4506   -3.0384    0.0000 H   0  0  0  0  0  0  0  0  0  0  0  0
    4.3166   -3.1755    0.0000 H   0  0  0  0  0  0  0  0  0  0  0  0
    4.4538   -2.3095    0.0000 H   0  0  0  0  0  0  0  0  0  0  0  0
   10.3296    0.9839    0.0000 H   0  0  0  0  0  0  0  0  0  0  0  0
    8.9266   -1.4461    0.0000 H   0  0  0  0  0  0  0  0  0  0  0  0
  1 19  1  0  0  0  0
  2 24  1  0  0  0  0
 11  3  1  1  0  0  0
  3 14  1  0  0  0  0
  3 26  1  0  0  0  0
  4 15  1  0  0  0  0
  4 16  1  0  0  0  0
  4 30  1  0  0  0  0
  5 14  1  0  0  0  0
  5 15  2  0  0  0  0
  6 13  1  0  0  0  0
  6 22  2  0  0  0  0
  7 13  2  0  0  0  0
  7 23  1  0  0  0  0
  8 14  2  0  0  0  0
  8 20  1  0  0  0  0
  9 10  1  0  0  0  0
  9 17  1  0  0  0  0
  9 32  1  0  0  0  0
 10 16  2  0  0  0  0
 11 12  1  0  0  0  0
 11 13  1  0  0  0  0
 11 25  1  0  0  0  0
 12 27  1  0  0  0  0
 12 28  1  0  0  0  0
 12 29  1  0  0  0  0
 15 19  1  0  0  0  0
 16 18  1  0  0  0  0
 17 18  2  0  0  0  0
 17 21  1  0  0  0  0
 18 31  1  0  0  0  0
 19 20  2  0  0  0  0
 20 33  1  0  0  0  0
 21 34  1  0  0  0  0
 21 35  1  0  0  0  0
 21 36  1  0  0  0  0
 22 24  1  0  0  0  0
 22 37  1  0  0  0  0
 23 24  2  0  0  0  0
 23 38  1  0  0  0  0
M  END
> <PUBCHEM_COMPOUND_CID>
16659841

> <PUBCHEM_COMPOUND_CANONICALIZED>
1

> <PUBCHEM_CACTVS_COMPLEXITY>
397

> <PUBCHEM_CACTVS_HBOND_ACCEPTOR>
8

> <PUBCHEM_CACTVS_HBOND_DONOR>
3

> <PUBCHEM_CACTVS_ROTATABLE_BOND>
5

> <PUBCHEM_CACTVS_SUBSKEYS>
AAADccBzwQAEAAAAAAAAAAAAAAAAAWAAAAAsWAAAAAAAAAAB+AAAHQIYAAAACCrBFyw/sJbrEACiATZnZACQhCsxA6AVeaA4ZBiAaMBAycBUhAhYGALAQCAAAAAAAAAAAAAAAAAAAAAAAAAAAAAAAAAAAA==

> <PUBCHEM_IUPAC_OPENEYE_NAME>
5-chloro-N2-[(1S)-1-(5-fluoropyrimidin-2-yl)ethyl]-N4-(5-methyl-1H-pyrazol-3-yl)pyrimidine-2,4-diamine

> <PUBCHEM_IUPAC_CAS_NAME>
5-chloro-N2-[(1S)-1-(5-fluoro-2-pyrimidinyl)ethyl]-N4-(5-methyl-1H-pyrazol-3-yl)pyrimidine-2,4-diamine

> <PUBCHEM_IUPAC_NAME_MARKUP>
5-chloro-2-<I>N</I>-[(1<I>S</I>)-1-(5-fluoropyrimidin-2-yl)ethyl]-4-<I>N</I>-(5-methyl-1<I>H</I>-pyrazol-3-yl)pyrimidine-2,4-diamine

> <PUBCHEM_IUPAC_NAME>
5-chloro-2-N-[(1S)-1-(5-fluoropyrimidin-2-yl)ethyl]-4-N-(5-methyl-1H-pyrazol-3-yl)pyrimidine-2,4-diamine

> <PUBCHEM_IUPAC_SYSTEMATIC_NAME>
5-chloranyl-N2-[(1S)-1-(5-fluoranylpyrimidin-2-yl)ethyl]-N4-(5-methyl-1H-pyrazol-3-yl)pyrimidine-2,4-diamine

> <PUBCHEM_IUPAC_TRADITIONAL_NAME>
[5-chloro-2-[[(1S)-1-(5-fluoropyrimidin-2-yl)ethyl]amino]pyrimidin-4-yl]-(5-methyl-1H-pyrazol-3-yl)amine

> <PUBCHEM_IUPAC_INCHI>
InChI=1S/C14H14ClFN8/c1-7-3-11(24-23-7)21-13-10(15)6-19-14(22-13)20-8(2)12-17-4-9(16)5-18-12/h3-6,8H,1-2H3,(H3,19,20,21,22,23,24)/t8-/m0/s1

> <PUBCHEM_IUPAC_INCHIKEY>
PDOQBOJDRPLBQU-QMMMGPOBSA-N

> <PUBCHEM_XLOGP3_AA>
2.4

> <PUBCHEM_EXACT_MASS>
348.1013983

> <PUBCHEM_MOLECULAR_FORMULA>
C14H14ClFN8

> <PUBCHEM_MOLECULAR_WEIGHT>
348.76

> <PUBCHEM_OPENEYE_CAN_SMILES>
CC1=CC(=NN1)NC2=NC(=NC=C2Cl)NC(C)C3=NC=C(C=N3)F

> <PUBCHEM_OPENEYE_ISO_SMILES>
CC1=CC(=NN1)NC2=NC(=NC=C2Cl)N[C@@H](C)C3=NC=C(C=N3)F

> <PUBCHEM_CACTVS_TPSA>
104

> <PUBCHEM_MONOISOTOPIC_WEIGHT>
348.1013983

> <PUBCHEM_TOTAL_CHARGE>
0

> <PUBCHEM_HEAVY_ATOM_COUNT>
24

> <PUBCHEM_ATOM_DEF_STEREO_COUNT>
1

> <PUBCHEM_ATOM_UDEF_STEREO_COUNT>
0

> <PUBCHEM_BOND_DEF_STEREO_COUNT>
0

> <PUBCHEM_BOND_UDEF_STEREO_COUNT>
0

> <PUBCHEM_ISOTOPIC_ATOM_COUNT>
0

> <PUBCHEM_COMPONENT_COUNT>
1

> <PUBCHEM_CACTVS_TAUTO_COUNT>
-1

> <PUBCHEM_COORDINATE_TYPE>
1
5
255

> <PUBCHEM_BONDANNOTATIONS>
10  16  8
15  19  8
16  18  8
17  18  8
19  20  8
22  24  8
23  24  8
11  3  5
5  14  8
5  15  8
6  13  8
6  22  8
7  13  8
7  23  8
8  14  8
8  20  8
9  10  8
9  17  8

$$$$
24756910
  -OEChem-11282412102D

 58 60  0     0  0  0  0  0  0999 V2000
   10.3312    1.3372    0.0000 O   0  0  0  0  0  0  0  0  0  0  0  0
   10.3312    3.3372    0.0000 O   0  0  0  0  0  0  0  0  0  0  0  0
    4.2690    2.8372    0.0000 O   0  0  0  0  0  0  0  0  0  0  0  0
    2.5369    1.8372    0.0000 O   0  0  0  0  0  0  0  0  0  0  0  0
   13.8116    0.3026    0.0000 N   0  0  0  0  0  0  0  0  0  0  0  0
    3.4030    1.3372    0.0000 N   0  0  0  0  0  0  0  0  0  0  0  0
   13.8232    3.3718    0.0000 N   0  0  0  0  0  0  0  0  0  0  0  0
   14.7292    1.8163    0.0000 N   0  0  0  0  0  0  0  0  0  0  0  0
    7.7331    1.8372    0.0000 C   0  0  0  0  0  0  0  0  0  0  0  0
    6.8671    1.3372    0.0000 C   0  0  0  0  0  0  0  0  0  0  0  0
    8.5991    1.3372    0.0000 C   0  0  0  0  0  0  0  0  0  0  0  0
    6.0010    1.8372    0.0000 C   0  0  0  0  0  0  0  0  0  0  0  0
    9.4651    1.8372    0.0000 C   0  0  0  0  0  0  0  0  0  0  0  0
    5.1350    1.3372    0.0000 C   0  0  0  0  0  0  0  0  0  0  0  0
   11.1972    1.8372    0.0000 C   0  0  0  0  0  0  0  0  0  0  0  0
   12.9292    1.8372    0.0000 C   0  0  0  0  0  0  0  0  0  0  0  0
   12.0632    1.3372    0.0000 C   0  0  0  0  0  0  0  0  0  0  0  0
    4.2690    1.8372    0.0000 C   0  0  0  0  0  0  0  0  0  0  0  0
   11.1972    2.8372    0.0000 C   0  0  0  0  0  0  0  0  0  0  0  0
   12.9292    2.8372    0.0000 C   0  0  0  0  0  0  0  0  0  0  0  0
   12.0632    3.3372    0.0000 C   0  0  0  0  0  0  0  0  0  0  0  0
   13.8232    1.3025    0.0000 C   0  0  0  0  0  0  0  0  0  0  0  0
   14.6718   -0.2074    0.0000 C   0  0  0  0  0  0  0  0  0  0  0  0
   14.7292    2.8580    0.0000 C   0  0  0  0  0  0  0  0  0  0  0  0
   14.6602   -1.2074    0.0000 C   0  0  0  0  0  0  0  0  0  0  0  0
   15.5436    0.2825    0.0000 C   0  0  0  0  0  0  0  0  0  0  0  0
   10.3312    4.3372    0.0000 C   0  0  0  0  0  0  0  0  0  0  0  0
   15.5204   -1.7173    0.0000 C   0  0  0  0  0  0  0  0  0  0  0  0
   16.4037   -0.2274    0.0000 C   0  0  0  0  0  0  0  0  0  0  0  0
   16.3922   -1.2274    0.0000 C   0  0  0  0  0  0  0  0  0  0  0  0
   15.5089   -2.7173    0.0000 C   0  0  0  0  0  0  0  0  0  0  0  0
   15.4973   -3.7172    0.0000 C   0  0  0  0  0  0  0  0  0  0  0  0
    8.1316    2.3121    0.0000 H   0  0  0  0  0  0  0  0  0  0  0  0
    7.3346    2.3121    0.0000 H   0  0  0  0  0  0  0  0  0  0  0  0
    6.4685    0.8622    0.0000 H   0  0  0  0  0  0  0  0  0  0  0  0
    7.2656    0.8622    0.0000 H   0  0  0  0  0  0  0  0  0  0  0  0
    8.2006    0.8622    0.0000 H   0  0  0  0  0  0  0  0  0  0  0  0
    8.9976    0.8622    0.0000 H   0  0  0  0  0  0  0  0  0  0  0  0
    6.3996    2.3121    0.0000 H   0  0  0  0  0  0  0  0  0  0  0  0
    5.6025    2.3121    0.0000 H   0  0  0  0  0  0  0  0  0  0  0  0
    9.8637    2.3121    0.0000 H   0  0  0  0  0  0  0  0  0  0  0  0
    9.0666    2.3121    0.0000 H   0  0  0  0  0  0  0  0  0  0  0  0
    4.7365    0.8622    0.0000 H   0  0  0  0  0  0  0  0  0  0  0  0
    5.5335    0.8622    0.0000 H   0  0  0  0  0  0  0  0  0  0  0  0
   12.0632    0.7172    0.0000 H   0  0  0  0  0  0  0  0  0  0  0  0
   12.0632    3.9572    0.0000 H   0  0  0  0  0  0  0  0  0  0  0  0
   13.2711   -0.0012    0.0000 H   0  0  0  0  0  0  0  0  0  0  0  0
    3.4030    0.7172    0.0000 H   0  0  0  0  0  0  0  0  0  0  0  0
   15.2650    3.1700    0.0000 H   0  0  0  0  0  0  0  0  0  0  0  0
   14.1198   -1.5111    0.0000 H   0  0  0  0  0  0  0  0  0  0  0  0
   15.5507    0.9025    0.0000 H   0  0  0  0  0  0  0  0  0  0  0  0
   10.9512    4.3372    0.0000 H   0  0  0  0  0  0  0  0  0  0  0  0
   10.3312    4.9572    0.0000 H   0  0  0  0  0  0  0  0  0  0  0  0
    9.7112    4.3372    0.0000 H   0  0  0  0  0  0  0  0  0  0  0  0
   16.9442    0.0763    0.0000 H   0  0  0  0  0  0  0  0  0  0  0  0
   16.9255   -1.5436    0.0000 H   0  0  0  0  0  0  0  0  0  0  0  0
    2.0000    1.5272    0.0000 H   0  0  0  0  0  0  0  0  0  0  0  0
   15.4901   -4.3372    0.0000 H   0  0  0  0  0  0  0  0  0  0  0  0
  1 13  1  0  0  0  0
  1 15  1  0  0  0  0
  2 19  1  0  0  0  0
  2 27  1  0  0  0  0
  3 18  2  0  0  0  0
  4  6  1  0  0  0  0
  4 57  1  0  0  0  0
  5 22  1  0  0  0  0
  5 23  1  0  0  0  0
  5 47  1  0  0  0  0
  6 18  1  0  0  0  0
  6 48  1  0  0  0  0
  7 20  1  0  0  0  0
  7 24  2  0  0  0  0
  8 22  2  0  0  0  0
  8 24  1  0  0  0  0
  9 10  1  0  0  0  0
  9 11  1  0  0  0  0
  9 33  1  0  0  0  0
  9 34  1  0  0  0  0
 10 12  1  0  0  0  0
 10 35  1  0  0  0  0
 10 36  1  0  0  0  0
 11 13  1  0  0  0  0
 11 37  1  0  0  0  0
 11 38  1  0  0  0  0
 12 14  1  0  0  0  0
 12 39  1  0  0  0  0
 12 40  1  0  0  0  0
 13 41  1  0  0  0  0
 13 42  1  0  0  0  0
 14 18  1  0  0  0  0
 14 43  1  0  0  0  0
 14 44  1  0  0  0  0
 15 17  1  0  0  0  0
 15 19  2  0  0  0  0
 16 17  2  0  0  0  0
 16 20  1  0  0  0  0
 16 22  1  0  0  0  0
 17 45  1  0  0  0  0
 19 21  1  0  0  0  0
 20 21  2  0  0  0  0
 21 46  1  0  0  0  0
 23 25  1  0  0  0  0
 23 26  2  0  0  0  0
 24 49  1  0  0  0  0
 25 28  2  0  0  0  0
 25 50  1  0  0  0  0
 26 29  1  0  0  0  0
 26 51  1  0  0  0  0
 27 52  1  0  0  0  0
 27 53  1  0  0  0  0
 27 54  1  0  0  0  0
 28 30  1  0  0  0  0
 28 31  1  0  0  0  0
 29 30  2  0  0  0  0
 29 55  1  0  0  0  0
 30 56  1  0  0  0  0
 31 32  3  0  0  0  0
 32 58  1  0  0  0  0
M  END
> <PUBCHEM_COMPOUND_CID>
24756910

> <PUBCHEM_COMPOUND_CANONICALIZED>
1

> <PUBCHEM_CACTVS_COMPLEXITY>
624

> <PUBCHEM_CACTVS_HBOND_ACCEPTOR>
7

> <PUBCHEM_CACTVS_HBOND_DONOR>
3

> <PUBCHEM_CACTVS_ROTATABLE_BOND>
12

> <PUBCHEM_CACTVS_SUBSKEYS>
AAADceB7uAAAAAAAAAAAAAAAAAAAAAAAAAA8YIAAAAAAAACx9AAAHgAUCAAADAyhngY39vbYFADoGydzdAiCiCkxIqAp2CE+7JiNLvLE+duGPCru0BvK6Ce42DOOIEABQgACQABAgAKEAASAAAAAAAAAAA==

> <PUBCHEM_IUPAC_OPENEYE_NAME>
7-[4-(3-ethynylanilino)-7-methoxy-quinazolin-6-yl]oxyheptanehydroxamic acid

> <PUBCHEM_IUPAC_CAS_NAME>
7-[[4-(3-ethynylanilino)-7-methoxy-6-quinazolinyl]oxy]-N-hydroxyheptanamide

> <PUBCHEM_IUPAC_NAME_MARKUP>
7-[4-(3-ethynylanilino)-7-methoxyquinazolin-6-yl]oxy-<I>N</I>-hydroxyheptanamide

> <PUBCHEM_IUPAC_NAME>
7-[4-(3-ethynylanilino)-7-methoxyquinazolin-6-yl]oxy-N-hydroxyheptanamide

> <PUBCHEM_IUPAC_SYSTEMATIC_NAME>
7-[4-[(3-ethynylphenyl)amino]-7-methoxy-quinazolin-6-yl]oxy-N-oxidanyl-heptanamide

> <PUBCHEM_IUPAC_TRADITIONAL_NAME>
7-[4-(3-ethynylanilino)-7-methoxy-quinazolin-6-yl]oxyheptanehydroxamic acid

> <PUBCHEM_IUPAC_INCHI>
InChI=1S/C24H26N4O4/c1-3-17-9-8-10-18(13-17)27-24-19-14-22(21(31-2)15-20(19)25-16-26-24)32-12-7-5-4-6-11-23(29)28-30/h1,8-10,13-16,30H,4-7,11-12H2,2H3,(H,28,29)(H,25,26,27)

> <PUBCHEM_IUPAC_INCHIKEY>
PLIVFNIUGLLCEK-UHFFFAOYSA-N

> <PUBCHEM_XLOGP3_AA>
4

> <PUBCHEM_EXACT_MASS>
434.19540532

> <PUBCHEM_MOLECULAR_FORMULA>
C24H26N4O4

> <PUBCHEM_MOLECULAR_WEIGHT>
434.5

> <PUBCHEM_OPENEYE_CAN_SMILES>
COC1=C(C=C2C(=C1)N=CN=C2NC3=CC=CC(=C3)C#C)OCCCCCCC(=O)NO

> <PUBCHEM_OPENEYE_ISO_SMILES>
COC1=C(C=C2C(=C1)N=CN=C2NC3=CC=CC(=C3)C#C)OCCCCCCC(=O)NO

> <PUBCHEM_CACTVS_TPSA>
106

> <PUBCHEM_MONOISOTOPIC_WEIGHT>
434.19540532

> <PUBCHEM_TOTAL_CHARGE>
0

> <PUBCHEM_HEAVY_ATOM_COUNT>
32

> <PUBCHEM_ATOM_DEF_STEREO_COUNT>
0

> <PUBCHEM_ATOM_UDEF_STEREO_COUNT>
0

> <PUBCHEM_BOND_DEF_STEREO_COUNT>
0

> <PUBCHEM_BOND_UDEF_STEREO_COUNT>
0

> <PUBCHEM_ISOTOPIC_ATOM_COUNT>
0

> <PUBCHEM_COMPONENT_COUNT>
1

> <PUBCHEM_CACTVS_TAUTO_COUNT>
-1

> <PUBCHEM_COORDINATE_TYPE>
1
5
255

> <PUBCHEM_BONDANNOTATIONS>
15  17  8
15  19  8
16  17  8
16  20  8
16  22  8
19  21  8
20  21  8
23  25  8
23  26  8
25  28  8
26  29  8
28  30  8
29  30  8
7  20  8
7  24  8
8  22  8
8  24  8

$$$$
11234052
  -OEChem-11282412102D

 46 49  0     1  0  0  0  0  0999 V2000
    9.9720    0.3606    0.0000 F   0  0  0  0  0  0  0  0  0  0  0  0
    4.8100    1.3014    0.0000 O   0  0  0  0  0  0  0  0  0  0  0  0
    8.2400   -0.6394    0.0000 O   0  0  0  0  0  0  0  0  0  0  0  0
    2.3100    2.1675    0.0000 O   0  0  0  0  0  0  0  0  0  0  0  0
    5.6419   -1.1394    0.0000 N   0  0  0  0  0  0  0  0  0  0  0  0
   11.7843   -2.4442    0.0000 N   0  0  0  0  0  0  0  0  0  0  0  0
    5.6419   -2.1394    0.0000 N   0  0  0  0  0  0  0  0  0  0  0  0
    7.3740   -2.1394    0.0000 N   0  0  0  0  0  0  0  0  0  0  0  0
    6.5079   -0.6394    0.0000 C   0  0  0  0  0  0  0  0  0  0  0  0
    6.2987    0.3324    0.0000 C   0  0  0  0  0  0  0  0  0  0  0  0
    5.3100    0.4354    0.0000 C   0  0  0  0  0  0  0  0  0  0  0  0
   10.8381   -1.1394    0.0000 C   0  0  0  0  0  0  0  0  0  0  0  0
   10.8381   -2.1394    0.0000 C   0  0  0  0  0  0  0  0  0  0  0  0
    4.9049   -0.4724    0.0000 C   0  0  0  0  0  0  0  0  0  0  0  0
    7.3740   -1.1394    0.0000 C   0  0  0  0  0  0  0  0  0  0  0  0
    9.1060   -1.1394    0.0000 C   0  0  0  0  0  0  0  0  0  0  0  0
   12.3679   -1.6394    0.0000 C   0  0  0  0  0  0  0  0  0  0  0  0
    9.9720   -0.6394    0.0000 C   0  0  0  0  0  0  0  0  0  0  0  0
   11.7843   -0.8347    0.0000 C   0  0  0  0  0  0  0  0  0  0  0  0
    6.9666    1.0767    0.0000 C   0  0  0  0  0  0  0  0  0  0  0  0
    3.8100    1.3014    0.0000 C   0  0  0  0  0  0  0  0  0  0  0  0
    9.9720   -2.6394    0.0000 C   0  0  0  0  0  0  0  0  0  0  0  0
    3.3100    2.1675    0.0000 C   0  0  1  0  0  0  0  0  0  0  0  0
    9.1060   -2.1394    0.0000 C   0  0  0  0  0  0  0  0  0  0  0  0
   13.3679   -1.6394    0.0000 C   0  0  0  0  0  0  0  0  0  0  0  0
    6.5079   -2.6394    0.0000 C   0  0  0  0  0  0  0  0  0  0  0  0
    3.8100    3.0335    0.0000 C   0  0  0  0  0  0  0  0  0  0  0  0
    4.2982   -0.6002    0.0000 H   0  0  0  0  0  0  0  0  0  0  0  0
   11.9769   -0.2454    0.0000 H   0  0  0  0  0  0  0  0  0  0  0  0
    7.4280    0.6626    0.0000 H   0  0  0  0  0  0  0  0  0  0  0  0
    7.3806    1.5381    0.0000 H   0  0  0  0  0  0  0  0  0  0  0  0
    6.5051    1.4907    0.0000 H   0  0  0  0  0  0  0  0  0  0  0  0
   11.9769   -3.0335    0.0000 H   0  0  0  0  0  0  0  0  0  0  0  0
    3.2274    1.0894    0.0000 H   0  0  0  0  0  0  0  0  0  0  0  0
    3.9177    0.6909    0.0000 H   0  0  0  0  0  0  0  0  0  0  0  0
    9.9720   -3.2594    0.0000 H   0  0  0  0  0  0  0  0  0  0  0  0
    3.0000    1.6305    0.0000 H   0  0  0  0  0  0  0  0  0  0  0  0
    8.5691   -2.4494    0.0000 H   0  0  0  0  0  0  0  0  0  0  0  0
   13.3679   -2.2594    0.0000 H   0  0  0  0  0  0  0  0  0  0  0  0
   13.9879   -1.6394    0.0000 H   0  0  0  0  0  0  0  0  0  0  0  0
   13.3679   -1.0194    0.0000 H   0  0  0  0  0  0  0  0  0  0  0  0
    4.3469    2.7235    0.0000 H   0  0  0  0  0  0  0  0  0  0  0  0
    4.1200    3.5704    0.0000 H   0  0  0  0  0  0  0  0  0  0  0  0
    3.2731    3.3435    0.0000 H   0  0  0  0  0  0  0  0  0  0  0  0
    6.5079   -3.2594    0.0000 H   0  0  0  0  0  0  0  0  0  0  0  0
    2.0000    2.7044    0.0000 H   0  0  0  0  0  0  0  0  0  0  0  0
  1 18  1  0  0  0  0
  2 11  1  0  0  0  0
  2 21  1  0  0  0  0
  3 15  1  0  0  0  0
  3 16  1  0  0  0  0
 23  4  1  6  0  0  0
  4 46  1  0  0  0  0
  5  7  1  0  0  0  0
  5  9  1  0  0  0  0
  5 14  1  0  0  0  0
  6 13  1  0  0  0  0
  6 17  1  0  0  0  0
  6 33  1  0  0  0  0
  7 26  2  0  0  0  0
  8 15  2  0  0  0  0
  8 26  1  0  0  0  0
  9 10  2  0  0  0  0
  9 15  1  0  0  0  0
 10 11  1  0  0  0  0
 10 20  1  0  0  0  0
 11 14  2  0  0  0  0
 12 13  2  0  0  0  0
 12 18  1  0  0  0  0
 12 19  1  0  0  0  0
 13 22  1  0  0  0  0
 14 28  1  0  0  0  0
 16 18  2  0  0  0  0
 16 24  1  0  0  0  0
 17 19  2  0  0  0  0
 17 25  1  0  0  0  0
 19 29  1  0  0  0  0
 20 30  1  0  0  0  0
 20 31  1  0  0  0  0
 20 32  1  0  0  0  0
 21 23  1  0  0  0  0
 21 34  1  0  0  0  0
 21 35  1  0  0  0  0
 22 24  2  0  0  0  0
 22 36  1  0  0  0  0
 23 27  1  0  0  0  0
 23 37  1  0  0  0  0
 24 38  1  0  0  0  0
 25 39  1  0  0  0  0
 25 40  1  0  0  0  0
 25 41  1  0  0  0  0
 26 45  1  0  0  0  0
 27 42  1  0  0  0  0
 27 43  1  0  0  0  0
 27 44  1  0  0  0  0
M  END
> <PUBCHEM_COMPOUND_CID>
11234052

> <PUBCHEM_COMPOUND_CANONICALIZED>
1

> <PUBCHEM_CACTVS_COMPLEXITY>
515

> <PUBCHEM_CACTVS_HBOND_ACCEPTOR>
6

> <PUBCHEM_CACTVS_HBOND_DONOR>
2

> <PUBCHEM_CACTVS_ROTATABLE_BOND>
5

> <PUBCHEM_CACTVS_SUBSKEYS>
AAADceB7sQAAAAAAAAAAAAAAAAAAAWLAAAA8QAAAAAAAAFgB/gAAHwAYCAAADBzhng4/1vbJlgCiAzRnZASSjC8x8qAd2SA/fJiPfuLEuZufuCjm2Bvb6Cfw0LMOAEABAAACAAAAgAIAAAQAAAAAAAAAAA==

> <PUBCHEM_IUPAC_OPENEYE_NAME>
(2R)-1-[4-[(4-fluoro-2-methyl-1H-indol-5-yl)oxy]-5-methyl-pyrrolo[2,1-f][1,2,4]triazin-6-yl]oxypropan-2-ol

> <PUBCHEM_IUPAC_CAS_NAME>
(2R)-1-[[4-[(4-fluoro-2-methyl-1H-indol-5-yl)oxy]-5-methyl-6-pyrrolo[2,1-f][1,2,4]triazinyl]oxy]-2-propanol

> <PUBCHEM_IUPAC_NAME_MARKUP>
(2<I>R</I>)-1-[4-[(4-fluoro-2-methyl-1<I>H</I>-indol-5-yl)oxy]-5-methylpyrrolo[2,1-f][1,2,4]triazin-6-yl]oxypropan-2-ol

> <PUBCHEM_IUPAC_NAME>
(2R)-1-[4-[(4-fluoro-2-methyl-1H-indol-5-yl)oxy]-5-methylpyrrolo[2,1-f][1,2,4]triazin-6-yl]oxypropan-2-ol

> <PUBCHEM_IUPAC_SYSTEMATIC_NAME>
(2R)-1-[4-[(4-fluoranyl-2-methyl-1H-indol-5-yl)oxy]-5-methyl-pyrrolo[2,1-f][1,2,4]triazin-6-yl]oxypropan-2-ol

> <PUBCHEM_IUPAC_TRADITIONAL_NAME>
(2R)-1-[4-[(4-fluoro-2-methyl-1H-indol-5-yl)oxy]-5-methyl-pyrrolo[2,1-f][1,2,4]triazin-6-yl]oxypropan-2-ol

> <PUBCHEM_IUPAC_INCHI>
InChI=1S/C19H19FN4O3/c1-10-6-13-14(23-10)4-5-15(17(13)20)27-19-18-12(3)16(26-8-11(2)25)7-24(18)22-9-21-19/h4-7,9,11,23,25H,8H2,1-3H3/t11-/m1/s1

> <PUBCHEM_IUPAC_INCHIKEY>
WCWUXEGQKLTGDX-LLVKDONJSA-N

> <PUBCHEM_XLOGP3_AA>
3

> <PUBCHEM_EXACT_MASS>
370.14411864

> <PUBCHEM_MOLECULAR_FORMULA>
C19H19FN4O3

> <PUBCHEM_MOLECULAR_WEIGHT>
370.4

> <PUBCHEM_OPENEYE_CAN_SMILES>
CC1=CC2=C(N1)C=CC(=C2F)OC3=NC=NN4C3=C(C(=C4)OCC(C)O)C

> <PUBCHEM_OPENEYE_ISO_SMILES>
CC1=CC2=C(N1)C=CC(=C2F)OC3=NC=NN4C3=C(C(=C4)OC[C@@H](C)O)C

> <PUBCHEM_CACTVS_TPSA>
84.7

> <PUBCHEM_MONOISOTOPIC_WEIGHT>
370.14411864

> <PUBCHEM_TOTAL_CHARGE>
0

> <PUBCHEM_HEAVY_ATOM_COUNT>
27

> <PUBCHEM_ATOM_DEF_STEREO_COUNT>
1

> <PUBCHEM_ATOM_UDEF_STEREO_COUNT>
0

> <PUBCHEM_BOND_DEF_STEREO_COUNT>
0

> <PUBCHEM_BOND_UDEF_STEREO_COUNT>
0

> <PUBCHEM_ISOTOPIC_ATOM_COUNT>
0

> <PUBCHEM_COMPONENT_COUNT>
1

> <PUBCHEM_CACTVS_TAUTO_COUNT>
-1

> <PUBCHEM_COORDINATE_TYPE>
1
5
255

> <PUBCHEM_BONDANNOTATIONS>
10  11  8
11  14  8
12  13  8
12  18  8
12  19  8
13  22  8
16  18  8
16  24  8
17  19  8
22  24  8
23  4  6
5  14  8
5  7  8
5  9  8
6  13  8
6  17  8
7  26  8
8  15  8
8  26  8
9  10  8
9  15  8

$$$$
24826799
  -OEChem-11282412102D

 66 70  0     0  0  0  0  0  0999 V2000
   11.7175   -3.8557    0.0000 F   0  0  0  0  0  0  0  0  0  0  0  0
   11.0776   -5.1169    0.0000 F   0  0  0  0  0  0  0  0  0  0  0  0
    9.8164   -4.4770    0.0000 F   0  0  0  0  0  0  0  0  0  0  0  0
    8.5458   -0.1581    0.0000 O   0  0  0  0  0  0  0  0  0  0  0  0
   12.7705   -1.9335    0.0000 N   0  0  0  0  0  0  0  0  0  0  0  0
   14.1061   -0.4449    0.0000 N   0  0  0  0  0  0  0  0  0  0  0  0
    8.1886   -1.8529    0.0000 N   0  0  0  0  0  0  0  0  0  0  0  0
    3.7320    3.6169    0.0000 N   0  0  0  0  0  0  0  0  0  0  0  0
    4.6783    4.9216    0.0000 N   0  0  0  0  0  0  0  0  0  0  0  0
    2.8660    3.1169    0.0000 N   0  0  0  0  0  0  0  0  0  0  0  0
   13.7490   -2.1397    0.0000 C   0  0  0  0  0  0  0  0  0  0  0  0
   12.4598   -0.9829    0.0000 C   0  0  0  0  0  0  0  0  0  0  0  0
   14.4168   -1.3954    0.0000 C   0  0  0  0  0  0  0  0  0  0  0  0
   13.1276   -0.2386    0.0000 C   0  0  0  0  0  0  0  0  0  0  0  0
   12.1026   -2.6778    0.0000 C   0  0  0  0  0  0  0  0  0  0  0  0
   11.1241   -2.4715    0.0000 C   0  0  0  0  0  0  0  0  0  0  0  0
   14.7740    0.2994    0.0000 C   0  0  0  0  0  0  0  0  0  0  0  0
   10.4563   -3.2158    0.0000 C   0  0  0  0  0  0  0  0  0  0  0  0
   10.8134   -1.5210    0.0000 C   0  0  0  0  0  0  0  0  0  0  0  0
    9.4778   -3.0096    0.0000 C   0  0  0  0  0  0  0  0  0  0  0  0
    9.8349   -1.3148    0.0000 C   0  0  0  0  0  0  0  0  0  0  0  0
    9.1671   -2.0591    0.0000 C   0  0  0  0  0  0  0  0  0  0  0  0
   10.7669   -4.1664    0.0000 C   0  0  0  0  0  0  0  0  0  0  0  0
    7.8779   -0.9024    0.0000 C   0  0  0  0  0  0  0  0  0  0  0  0
    6.8994   -0.6961    0.0000 C   0  0  0  0  0  0  0  0  0  0  0  0
    6.5888    0.2544    0.0000 C   0  0  0  0  0  0  0  0  0  0  0  0
    6.2316   -1.4404    0.0000 C   0  0  0  0  0  0  0  0  0  0  0  0
    5.6103    0.4606    0.0000 C   0  0  0  0  0  0  0  0  0  0  0  0
    4.9424   -0.2837    0.0000 C   0  0  0  0  0  0  0  0  0  0  0  0
    5.2531   -1.2342    0.0000 C   0  0  0  0  0  0  0  0  0  0  0  0
    3.9639   -0.0775    0.0000 C   0  0  0  0  0  0  0  0  0  0  0  0
    5.2996    1.4111    0.0000 C   0  0  0  0  0  0  0  0  0  0  0  0
    4.6783    3.3122    0.0000 C   0  0  0  0  0  0  0  0  0  0  0  0
    3.7320    4.6169    0.0000 C   0  0  0  0  0  0  0  0  0  0  0  0
    4.9889    2.3616    0.0000 C   0  0  0  0  0  0  0  0  0  0  0  0
    5.2619    4.1169    0.0000 C   0  0  0  0  0  0  0  0  0  0  0  0
    2.8660    5.1169    0.0000 C   0  0  0  0  0  0  0  0  0  0  0  0
    2.0000    4.6169    0.0000 C   0  0  0  0  0  0  0  0  0  0  0  0
    2.0000    3.6169    0.0000 C   0  0  0  0  0  0  0  0  0  0  0  0
   13.5177   -2.7149    0.0000 H   0  0  0  0  0  0  0  0  0  0  0  0
   14.2753   -2.4673    0.0000 H   0  0  0  0  0  0  0  0  0  0  0  0
   12.0772   -0.4950    0.0000 H   0  0  0  0  0  0  0  0  0  0  0  0
   11.9129   -1.2750    0.0000 H   0  0  0  0  0  0  0  0  0  0  0  0
   14.7994   -1.8833    0.0000 H   0  0  0  0  0  0  0  0  0  0  0  0
   14.9637   -1.1034    0.0000 H   0  0  0  0  0  0  0  0  0  0  0  0
   13.3589    0.3366    0.0000 H   0  0  0  0  0  0  0  0  0  0  0  0
   12.6013    0.0890    0.0000 H   0  0  0  0  0  0  0  0  0  0  0  0
   11.8714   -3.2530    0.0000 H   0  0  0  0  0  0  0  0  0  0  0  0
   12.6290   -3.0054    0.0000 H   0  0  0  0  0  0  0  0  0  0  0  0
   15.2355   -0.1146    0.0000 H   0  0  0  0  0  0  0  0  0  0  0  0
   15.1881    0.7609    0.0000 H   0  0  0  0  0  0  0  0  0  0  0  0
   14.3125    0.7135    0.0000 H   0  0  0  0  0  0  0  0  0  0  0  0
   11.2275   -1.0596    0.0000 H   0  0  0  0  0  0  0  0  0  0  0  0
    9.0637   -3.4711    0.0000 H   0  0  0  0  0  0  0  0  0  0  0  0
    9.6423   -0.7255    0.0000 H   0  0  0  0  0  0  0  0  0  0  0  0
    7.7745   -2.3144    0.0000 H   0  0  0  0  0  0  0  0  0  0  0  0
    7.0028    0.7158    0.0000 H   0  0  0  0  0  0  0  0  0  0  0  0
    6.4242   -2.0298    0.0000 H   0  0  0  0  0  0  0  0  0  0  0  0
    4.8390   -1.6957    0.0000 H   0  0  0  0  0  0  0  0  0  0  0  0
    4.0918    0.5292    0.0000 H   0  0  0  0  0  0  0  0  0  0  0  0
    3.3572    0.0504    0.0000 H   0  0  0  0  0  0  0  0  0  0  0  0
    3.8360   -0.6842    0.0000 H   0  0  0  0  0  0  0  0  0  0  0  0
    5.8819    4.1169    0.0000 H   0  0  0  0  0  0  0  0  0  0  0  0
    2.8660    5.7369    0.0000 H   0  0  0  0  0  0  0  0  0  0  0  0
    1.4631    4.9269    0.0000 H   0  0  0  0  0  0  0  0  0  0  0  0
    1.4631    3.3069    0.0000 H   0  0  0  0  0  0  0  0  0  0  0  0
  1 23  1  0  0  0  0
  2 23  1  0  0  0  0
  3 23  1  0  0  0  0
  4 24  2  0  0  0  0
  5 11  1  0  0  0  0
  5 12  1  0  0  0  0
  5 15  1  0  0  0  0
  6 13  1  0  0  0  0
  6 14  1  0  0  0  0
  6 17  1  0  0  0  0
  7 22  1  0  0  0  0
  7 24  1  0  0  0  0
  7 56  1  0  0  0  0
  8 10  1  0  0  0  0
  8 33  1  0  0  0  0
  8 34  1  0  0  0  0
  9 34  2  0  0  0  0
  9 36  1  0  0  0  0
 10 39  2  0  0  0  0
 11 13  1  0  0  0  0
 11 40  1  0  0  0  0
 11 41  1  0  0  0  0
 12 14  1  0  0  0  0
 12 42  1  0  0  0  0
 12 43  1  0  0  0  0
 13 44  1  0  0  0  0
 13 45  1  0  0  0  0
 14 46  1  0  0  0  0
 14 47  1  0  0  0  0
 15 16  1  0  0  0  0
 15 48  1  0  0  0  0
 15 49  1  0  0  0  0
 16 18  2  0  0  0  0
 16 19  1  0  0  0  0
 17 50  1  0  0  0  0
 17 51  1  0  0  0  0
 17 52  1  0  0  0  0
 18 20  1  0  0  0  0
 18 23  1  0  0  0  0
 19 21  2  0  0  0  0
 19 53  1  0  0  0  0
 20 22  2  0  0  0  0
 20 54  1  0  0  0  0
 21 22  1  0  0  0  0
 21 55  1  0  0  0  0
 24 25  1  0  0  0  0
 25 26  2  0  0  0  0
 25 27  1  0  0  0  0
 26 28  1  0  0  0  0
 26 57  1  0  0  0  0
 27 30  2  0  0  0  0
 27 58  1  0  0  0  0
 28 29  2  0  0  0  0
 28 32  1  0  0  0  0
 29 30  1  0  0  0  0
 29 31  1  0  0  0  0
 30 59  1  0  0  0  0
 31 60  1  0  0  0  0
 31 61  1  0  0  0  0
 31 62  1  0  0  0  0
 32 35  3  0  0  0  0
 33 35  1  0  0  0  0
 33 36  2  0  0  0  0
 34 37  1  0  0  0  0
 36 63  1  0  0  0  0
 37 38  2  0  0  0  0
 37 64  1  0  0  0  0
 38 39  1  0  0  0  0
 38 65  1  0  0  0  0
 39 66  1  0  0  0  0
M  END
> <PUBCHEM_COMPOUND_CID>
24826799

> <PUBCHEM_COMPOUND_CANONICALIZED>
1

> <PUBCHEM_CACTVS_COMPLEXITY>
910

> <PUBCHEM_CACTVS_HBOND_ACCEPTOR>
8

> <PUBCHEM_CACTVS_HBOND_DONOR>
1

> <PUBCHEM_CACTVS_ROTATABLE_BOND>
6

> <PUBCHEM_CACTVS_SUBSKEYS>
AAADceB7oYAAAAAAAAAAAAAAAAAAAWAAAAA8eIEAAAAAAFgB9AAAHwAYAAAADAjBnxQ/8J/IEADqEzd3dAiShC81kqAd2CE4dNiIaPLAnZGUoQhonALIyacYiMCOyAACQAAQAACQAASAACAAAAAAAAAAAA==

> <PUBCHEM_IUPAC_OPENEYE_NAME>
3-(2-imidazo[1,2-b]pyridazin-3-ylethynyl)-4-methyl-N-[4-[(4-methylpiperazin-1-yl)methyl]-3-(trifluoromethyl)phenyl]benzamide

> <PUBCHEM_IUPAC_CAS_NAME>
3-[2-(3-imidazo[1,2-b]pyridazinyl)ethynyl]-4-methyl-N-[4-[(4-methyl-1-piperazinyl)methyl]-3-(trifluoromethyl)phenyl]benzamide

> <PUBCHEM_IUPAC_NAME_MARKUP>
3-(2-imidazo[1,2-b]pyridazin-3-ylethynyl)-4-methyl-<I>N</I>-[4-[(4-methylpiperazin-1-yl)methyl]-3-(trifluoromethyl)phenyl]benzamide

> <PUBCHEM_IUPAC_NAME>
3-(2-imidazo[1,2-b]pyridazin-3-ylethynyl)-4-methyl-N-[4-[(4-methylpiperazin-1-yl)methyl]-3-(trifluoromethyl)phenyl]benzamide

> <PUBCHEM_IUPAC_SYSTEMATIC_NAME>
3-(2-imidazo[1,2-b]pyridazin-3-ylethynyl)-4-methyl-N-[4-[(4-methylpiperazin-1-yl)methyl]-3-(trifluoromethyl)phenyl]benzamide

> <PUBCHEM_IUPAC_TRADITIONAL_NAME>
3-(2-imidazo[1,2-b]pyridazin-3-ylethynyl)-4-methyl-N-[4-[(4-methylpiperazino)methyl]-3-(trifluoromethyl)phenyl]benzamide

> <PUBCHEM_IUPAC_INCHI>
InChI=1S/C29H27F3N6O/c1-20-5-6-22(16-21(20)8-10-25-18-33-27-4-3-11-34-38(25)27)28(39)35-24-9-7-23(26(17-24)29(30,31)32)19-37-14-12-36(2)13-15-37/h3-7,9,11,16-18H,12-15,19H2,1-2H3,(H,35,39)

> <PUBCHEM_IUPAC_INCHIKEY>
PHXJVRSECIGDHY-UHFFFAOYSA-N

> <PUBCHEM_XLOGP3_AA>
4.1

> <PUBCHEM_EXACT_MASS>
532.21984399

> <PUBCHEM_MOLECULAR_FORMULA>
C29H27F3N6O

> <PUBCHEM_MOLECULAR_WEIGHT>
532.6

> <PUBCHEM_OPENEYE_CAN_SMILES>
CC1=C(C=C(C=C1)C(=O)NC2=CC(=C(C=C2)CN3CCN(CC3)C)C(F)(F)F)C#CC4=CN=C5N4N=CC=C5

> <PUBCHEM_OPENEYE_ISO_SMILES>
CC1=C(C=C(C=C1)C(=O)NC2=CC(=C(C=C2)CN3CCN(CC3)C)C(F)(F)F)C#CC4=CN=C5N4N=CC=C5

> <PUBCHEM_CACTVS_TPSA>
65.8

> <PUBCHEM_MONOISOTOPIC_WEIGHT>
532.21984399

> <PUBCHEM_TOTAL_CHARGE>
0

> <PUBCHEM_HEAVY_ATOM_COUNT>
39

> <PUBCHEM_ATOM_DEF_STEREO_COUNT>
0

> <PUBCHEM_ATOM_UDEF_STEREO_COUNT>
0

> <PUBCHEM_BOND_DEF_STEREO_COUNT>
0

> <PUBCHEM_BOND_UDEF_STEREO_COUNT>
0

> <PUBCHEM_ISOTOPIC_ATOM_COUNT>
0

> <PUBCHEM_COMPONENT_COUNT>
1

> <PUBCHEM_CACTVS_TAUTO_COUNT>
-1

> <PUBCHEM_COORDINATE_TYPE>
1
5
255

> <PUBCHEM_BONDANNOTATIONS>
10  39  8
16  18  8
16  19  8
18  20  8
19  21  8
20  22  8
21  22  8
25  26  8
25  27  8
26  28  8
27  30  8
28  29  8
29  30  8
33  36  8
34  37  8
37  38  8
38  39  8
8  10  8
8  33  8
8  34  8
9  34  8
9  36  8

$$$$
9549299
  -OEChem-11282412102D

 48 51  0     0  0  0  0  0  0999 V2000
    2.3660   -1.2010    0.0000 F   0  0  0  0  0  0  0  0  0  0  0  0
    2.0000   -2.5670    0.0000 F   0  0  0  0  0  0  0  0  0  0  0  0
    3.3660   -2.9330    0.0000 F   0  0  0  0  0  0  0  0  0  0  0  0
   12.3923    2.4330    0.0000 O   0  0  0  0  0  0  0  0  0  0  0  0
   11.5263    0.9330    0.0000 N   0  0  0  0  0  0  0  0  0  0  0  0
    8.0622    0.9330    0.0000 N   0  0  0  0  0  0  0  0  0  0  0  0
    4.5981    0.9330    0.0000 N   0  0  0  0  0  0  0  0  0  0  0  0
    7.1962    2.4330    0.0000 N   0  0  0  0  0  0  0  0  0  0  0  0
    5.4641    2.4330    0.0000 N   0  0  0  0  0  0  0  0  0  0  0  0
   13.2583    0.9330    0.0000 C   0  0  0  0  0  0  0  0  0  0  0  0
   13.7583    0.0670    0.0000 C   0  0  0  0  0  0  0  0  0  0  0  0
   14.2583    0.9330    0.0000 C   0  0  0  0  0  0  0  0  0  0  0  0
   12.3923    1.4330    0.0000 C   0  0  0  0  0  0  0  0  0  0  0  0
   10.6603    1.4330    0.0000 C   0  0  0  0  0  0  0  0  0  0  0  0
    9.7942    0.9330    0.0000 C   0  0  0  0  0  0  0  0  0  0  0  0
   10.6603    2.4330    0.0000 C   0  0  0  0  0  0  0  0  0  0  0  0
    8.9282    1.4330    0.0000 C   0  0  0  0  0  0  0  0  0  0  0  0
    9.7942    2.9330    0.0000 C   0  0  0  0  0  0  0  0  0  0  0  0
    8.9282    2.4330    0.0000 C   0  0  0  0  0  0  0  0  0  0  0  0
    7.1962    1.4330    0.0000 C   0  0  0  0  0  0  0  0  0  0  0  0
    4.5981   -0.0670    0.0000 C   0  0  0  0  0  0  0  0  0  0  0  0
    6.3301    0.9330    0.0000 C   0  0  0  0  0  0  0  0  0  0  0  0
    5.4641    1.4330    0.0000 C   0  0  0  0  0  0  0  0  0  0  0  0
    3.7320   -1.5670    0.0000 C   0  0  0  0  0  0  0  0  0  0  0  0
    3.7320   -0.5670    0.0000 C   0  0  0  0  0  0  0  0  0  0  0  0
    5.4641   -0.5670    0.0000 C   0  0  0  0  0  0  0  0  0  0  0  0
    4.5981   -2.0670    0.0000 C   0  0  0  0  0  0  0  0  0  0  0  0
    5.4641   -1.5670    0.0000 C   0  0  0  0  0  0  0  0  0  0  0  0
    2.8660   -2.0670    0.0000 C   0  0  0  0  0  0  0  0  0  0  0  0
    6.3301    2.9330    0.0000 C   0  0  0  0  0  0  0  0  0  0  0  0
   13.4188    1.5319    0.0000 H   0  0  0  0  0  0  0  0  0  0  0  0
   13.2834   -0.3315    0.0000 H   0  0  0  0  0  0  0  0  0  0  0  0
   14.2333   -0.3315    0.0000 H   0  0  0  0  0  0  0  0  0  0  0  0
   14.8409    0.7210    0.0000 H   0  0  0  0  0  0  0  0  0  0  0  0
   14.3660    1.5436    0.0000 H   0  0  0  0  0  0  0  0  0  0  0  0
   11.5263    0.3130    0.0000 H   0  0  0  0  0  0  0  0  0  0  0  0
    9.7942    0.3130    0.0000 H   0  0  0  0  0  0  0  0  0  0  0  0
   11.1972    2.7430    0.0000 H   0  0  0  0  0  0  0  0  0  0  0  0
    9.7942    3.5530    0.0000 H   0  0  0  0  0  0  0  0  0  0  0  0
    8.3913    2.7430    0.0000 H   0  0  0  0  0  0  0  0  0  0  0  0
    8.0622    0.3130    0.0000 H   0  0  0  0  0  0  0  0  0  0  0  0
    6.3301    0.3130    0.0000 H   0  0  0  0  0  0  0  0  0  0  0  0
    4.0611    1.2430    0.0000 H   0  0  0  0  0  0  0  0  0  0  0  0
    3.1951   -0.2570    0.0000 H   0  0  0  0  0  0  0  0  0  0  0  0
    6.0010   -0.2570    0.0000 H   0  0  0  0  0  0  0  0  0  0  0  0
    4.5981   -2.6870    0.0000 H   0  0  0  0  0  0  0  0  0  0  0  0
    6.0010   -1.8770    0.0000 H   0  0  0  0  0  0  0  0  0  0  0  0
    6.3301    3.5530    0.0000 H   0  0  0  0  0  0  0  0  0  0  0  0
  1 29  1  0  0  0  0
  2 29  1  0  0  0  0
  3 29  1  0  0  0  0
  4 13  2  0  0  0  0
  5 13  1  0  0  0  0
  5 14  1  0  0  0  0
  5 36  1  0  0  0  0
  6 17  1  0  0  0  0
  6 20  1  0  0  0  0
  6 41  1  0  0  0  0
  7 21  1  0  0  0  0
  7 23  1  0  0  0  0
  7 43  1  0  0  0  0
  8 20  2  0  0  0  0
  8 30  1  0  0  0  0
  9 23  1  0  0  0  0
  9 30  2  0  0  0  0
 10 11  1  0  0  0  0
 10 12  1  0  0  0  0
 10 13  1  0  0  0  0
 10 31  1  0  0  0  0
 11 12  1  0  0  0  0
 11 32  1  0  0  0  0
 11 33  1  0  0  0  0
 12 34  1  0  0  0  0
 12 35  1  0  0  0  0
 14 15  1  0  0  0  0
 14 16  2  0  0  0  0
 15 17  2  0  0  0  0
 15 37  1  0  0  0  0
 16 18  1  0  0  0  0
 16 38  1  0  0  0  0
 17 19  1  0  0  0  0
 18 19  2  0  0  0  0
 18 39  1  0  0  0  0
 19 40  1  0  0  0  0
 20 22  1  0  0  0  0
 21 25  1  0  0  0  0
 21 26  2  0  0  0  0
 22 23  2  0  0  0  0
 22 42  1  0  0  0  0
 24 25  2  0  0  0  0
 24 27  1  0  0  0  0
 24 29  1  0  0  0  0
 25 44  1  0  0  0  0
 26 28  1  0  0  0  0
 26 45  1  0  0  0  0
 27 28  2  0  0  0  0
 27 46  1  0  0  0  0
 28 47  1  0  0  0  0
 30 48  1  0  0  0  0
M  END
> <PUBCHEM_COMPOUND_CID>
9549299

> <PUBCHEM_COMPOUND_CANONICALIZED>
1

> <PUBCHEM_CACTVS_COMPLEXITY>
586

> <PUBCHEM_CACTVS_HBOND_ACCEPTOR>
8

> <PUBCHEM_CACTVS_HBOND_DONOR>
3

> <PUBCHEM_CACTVS_ROTATABLE_BOND>
6

> <PUBCHEM_CACTVS_SUBSKEYS>
AAADceB7oYAAAAAAAAAAAAAAGAAAAAAAAAA8YIAAAAAAAAAB0AAAHwAQAAAADQiBmhQ18JbIEACoAidzdACCgCkxAqAJ2CE4ZJiIKHLA2dGEJAholALIyCcQgAAOAAAAQAQAAAAAAACACAAAAAAAAAAAAA==

> <PUBCHEM_IUPAC_OPENEYE_NAME>
N-[3-[[6-[3-(trifluoromethyl)anilino]pyrimidin-4-yl]amino]phenyl]cyclopropanecarboxamide

> <PUBCHEM_IUPAC_CAS_NAME>
N-[3-[[6-[3-(trifluoromethyl)anilino]-4-pyrimidinyl]amino]phenyl]cyclopropanecarboxamide

> <PUBCHEM_IUPAC_NAME_MARKUP>
<I>N</I>-[3-[[6-[3-(trifluoromethyl)anilino]pyrimidin-4-yl]amino]phenyl]cyclopropanecarboxamide

> <PUBCHEM_IUPAC_NAME>
N-[3-[[6-[3-(trifluoromethyl)anilino]pyrimidin-4-yl]amino]phenyl]cyclopropanecarboxamide

> <PUBCHEM_IUPAC_SYSTEMATIC_NAME>
N-[3-[[6-[[3-(trifluoromethyl)phenyl]amino]pyrimidin-4-yl]amino]phenyl]cyclopropanecarboxamide

> <PUBCHEM_IUPAC_TRADITIONAL_NAME>
N-[3-[[6-[3-(trifluoromethyl)anilino]pyrimidin-4-yl]amino]phenyl]cyclopropanecarboxamide

> <PUBCHEM_IUPAC_INCHI>
InChI=1S/C21H18F3N5O/c22-21(23,24)14-3-1-4-15(9-14)27-18-11-19(26-12-25-18)28-16-5-2-6-17(10-16)29-20(30)13-7-8-13/h1-6,9-13H,7-8H2,(H,29,30)(H2,25,26,27,28)

> <PUBCHEM_IUPAC_INCHIKEY>
YOHYSYJDKVYCJI-UHFFFAOYSA-N

> <PUBCHEM_XLOGP3_AA>
4.5

> <PUBCHEM_EXACT_MASS>
413.14634470

> <PUBCHEM_MOLECULAR_FORMULA>
C21H18F3N5O

> <PUBCHEM_MOLECULAR_WEIGHT>
413.4

> <PUBCHEM_OPENEYE_CAN_SMILES>
C1CC1C(=O)NC2=CC=CC(=C2)NC3=NC=NC(=C3)NC4=CC=CC(=C4)C(F)(F)F

> <PUBCHEM_OPENEYE_ISO_SMILES>
C1CC1C(=O)NC2=CC=CC(=C2)NC3=NC=NC(=C3)NC4=CC=CC(=C4)C(F)(F)F

> <PUBCHEM_CACTVS_TPSA>
78.9

> <PUBCHEM_MONOISOTOPIC_WEIGHT>
413.14634470

> <PUBCHEM_TOTAL_CHARGE>
0

> <PUBCHEM_HEAVY_ATOM_COUNT>
30

> <PUBCHEM_ATOM_DEF_STEREO_COUNT>
0

> <PUBCHEM_ATOM_UDEF_STEREO_COUNT>
0

> <PUBCHEM_BOND_DEF_STEREO_COUNT>
0

> <PUBCHEM_BOND_UDEF_STEREO_COUNT>
0

> <PUBCHEM_ISOTOPIC_ATOM_COUNT>
0

> <PUBCHEM_COMPONENT_COUNT>
1

> <PUBCHEM_CACTVS_TAUTO_COUNT>
-1

> <PUBCHEM_COORDINATE_TYPE>
1
5
255

> <PUBCHEM_BONDANNOTATIONS>
14  15  8
14  16  8
15  17  8
16  18  8
17  19  8
18  19  8
20  22  8
21  25  8
21  26  8
22  23  8
24  25  8
24  27  8
26  28  8
27  28  8
8  20  8
8  30  8
9  23  8
9  30  8

$$$$
25102847
  -OEChem-11282412102D

 61 65  0     0  0  0  0  0  0999 V2000
   10.5722    6.5470    0.0000 F   0  0  0  0  0  0  0  0  0  0  0  0
    8.0379    1.0174    0.0000 O   0  0  0  0  0  0  0  0  0  0  0  0
    8.8865    2.5273    0.0000 O   0  0  0  0  0  0  0  0  0  0  0  0
    5.4804   -2.5124    0.0000 O   0  0  0  0  0  0  0  0  0  0  0  0
    2.0000   -3.5470    0.0000 O   0  0  0  0  0  0  0  0  0  0  0  0
    2.0000   -5.5470    0.0000 O   0  0  0  0  0  0  0  0  0  0  0  0
    8.9212   -0.4725    0.0000 N   0  0  0  0  0  0  0  0  0  0  0  0
   10.6184    2.5473    0.0000 N   0  0  0  0  0  0  0  0  0  0  0  0
    5.4920   -5.5817    0.0000 N   0  0  0  0  0  0  0  0  0  0  0  0
    9.7698    1.0374    0.0000 C   0  0  0  0  0  0  0  0  0  0  0  0
   10.2798    0.1772    0.0000 C   0  0  0  0  0  0  0  0  0  0  0  0
   10.7698    1.0490    0.0000 C   0  0  0  0  0  0  0  0  0  0  0  0
    8.9096    0.5274    0.0000 C   0  0  0  0  0  0  0  0  0  0  0  0
    9.7583    2.0373    0.0000 C   0  0  0  0  0  0  0  0  0  0  0  0
    8.0610   -0.9825    0.0000 C   0  0  0  0  0  0  0  0  0  0  0  0
   10.6069    3.5472    0.0000 C   0  0  0  0  0  0  0  0  0  0  0  0
    8.0726   -1.9824    0.0000 C   0  0  0  0  0  0  0  0  0  0  0  0
    7.1893   -0.4926    0.0000 C   0  0  0  0  0  0  0  0  0  0  0  0
    9.7351    4.0372    0.0000 C   0  0  0  0  0  0  0  0  0  0  0  0
   11.4671    4.0572    0.0000 C   0  0  0  0  0  0  0  0  0  0  0  0
    7.2124   -2.4924    0.0000 C   0  0  0  0  0  0  0  0  0  0  0  0
    6.3291   -1.0025    0.0000 C   0  0  0  0  0  0  0  0  0  0  0  0
    9.7236    5.0371    0.0000 C   0  0  0  0  0  0  0  0  0  0  0  0
   11.4555    5.0572    0.0000 C   0  0  0  0  0  0  0  0  0  0  0  0
    6.3406   -2.0025    0.0000 C   0  0  0  0  0  0  0  0  0  0  0  0
   10.5838    5.5471    0.0000 C   0  0  0  0  0  0  0  0  0  0  0  0
    5.4920   -3.5124    0.0000 C   0  0  0  0  0  0  0  0  0  0  0  0
    4.5981   -4.0470    0.0000 C   0  0  0  0  0  0  0  0  0  0  0  0
    4.5981   -5.0470    0.0000 C   0  0  0  0  0  0  0  0  0  0  0  0
    6.3981   -4.0262    0.0000 C   0  0  0  0  0  0  0  0  0  0  0  0
    3.7320   -3.5470    0.0000 C   0  0  0  0  0  0  0  0  0  0  0  0
    3.7320   -5.5470    0.0000 C   0  0  0  0  0  0  0  0  0  0  0  0
    2.8660   -4.0470    0.0000 C   0  0  0  0  0  0  0  0  0  0  0  0
    2.8660   -5.0470    0.0000 C   0  0  0  0  0  0  0  0  0  0  0  0
    6.3981   -5.0678    0.0000 C   0  0  0  0  0  0  0  0  0  0  0  0
    2.0000   -2.5470    0.0000 C   0  0  0  0  0  0  0  0  0  0  0  0
    2.0000   -6.5470    0.0000 C   0  0  0  0  0  0  0  0  0  0  0  0
    9.8095   -0.2268    0.0000 H   0  0  0  0  0  0  0  0  0  0  0  0
   10.7593   -0.2158    0.0000 H   0  0  0  0  0  0  0  0  0  0  0  0
   11.3548    0.8437    0.0000 H   0  0  0  0  0  0  0  0  0  0  0  0
   10.8703    1.6607    0.0000 H   0  0  0  0  0  0  0  0  0  0  0  0
    9.4617   -0.7763    0.0000 H   0  0  0  0  0  0  0  0  0  0  0  0
   11.1589    2.2435    0.0000 H   0  0  0  0  0  0  0  0  0  0  0  0
    8.6131   -2.2862    0.0000 H   0  0  0  0  0  0  0  0  0  0  0  0
    7.1821    0.1274    0.0000 H   0  0  0  0  0  0  0  0  0  0  0  0
    9.2018    3.7210    0.0000 H   0  0  0  0  0  0  0  0  0  0  0  0
   12.0076    3.7534    0.0000 H   0  0  0  0  0  0  0  0  0  0  0  0
    7.2196   -3.1124    0.0000 H   0  0  0  0  0  0  0  0  0  0  0  0
    5.7886   -0.6988    0.0000 H   0  0  0  0  0  0  0  0  0  0  0  0
    9.1831    5.3409    0.0000 H   0  0  0  0  0  0  0  0  0  0  0  0
   11.9888    5.3733    0.0000 H   0  0  0  0  0  0  0  0  0  0  0  0
    3.7320   -2.9270    0.0000 H   0  0  0  0  0  0  0  0  0  0  0  0
    6.9338   -3.7142    0.0000 H   0  0  0  0  0  0  0  0  0  0  0  0
    3.7320   -6.1670    0.0000 H   0  0  0  0  0  0  0  0  0  0  0  0
    6.9338   -5.3799    0.0000 H   0  0  0  0  0  0  0  0  0  0  0  0
    2.6200   -2.5470    0.0000 H   0  0  0  0  0  0  0  0  0  0  0  0
    2.0000   -1.9270    0.0000 H   0  0  0  0  0  0  0  0  0  0  0  0
    1.3800   -2.5470    0.0000 H   0  0  0  0  0  0  0  0  0  0  0  0
    1.3800   -6.5470    0.0000 H   0  0  0  0  0  0  0  0  0  0  0  0
    2.0000   -7.1670    0.0000 H   0  0  0  0  0  0  0  0  0  0  0  0
    2.6200   -6.5470    0.0000 H   0  0  0  0  0  0  0  0  0  0  0  0
  1 26  1  0  0  0  0
  2 13  2  0  0  0  0
  3 14  2  0  0  0  0
  4 25  1  0  0  0  0
  4 27  1  0  0  0  0
  5 33  1  0  0  0  0
  5 36  1  0  0  0  0
  6 34  1  0  0  0  0
  6 37  1  0  0  0  0
  7 13  1  0  0  0  0
  7 15  1  0  0  0  0
  7 42  1  0  0  0  0
  8 14  1  0  0  0  0
  8 16  1  0  0  0  0
  8 43  1  0  0  0  0
  9 29  2  0  0  0  0
  9 35  1  0  0  0  0
 10 11  1  0  0  0  0
 10 12  1  0  0  0  0
 10 13  1  0  0  0  0
 10 14  1  0  0  0  0
 11 12  1  0  0  0  0
 11 38  1  0  0  0  0
 11 39  1  0  0  0  0
 12 40  1  0  0  0  0
 12 41  1  0  0  0  0
 15 17  2  0  0  0  0
 15 18  1  0  0  0  0
 16 19  2  0  0  0  0
 16 20  1  0  0  0  0
 17 21  1  0  0  0  0
 17 44  1  0  0  0  0
 18 22  2  0  0  0  0
 18 45  1  0  0  0  0
 19 23  1  0  0  0  0
 19 46  1  0  0  0  0
 20 24  2  0  0  0  0
 20 47  1  0  0  0  0
 21 25  2  0  0  0  0
 21 48  1  0  0  0  0
 22 25  1  0  0  0  0
 22 49  1  0  0  0  0
 23 26  2  0  0  0  0
 23 50  1  0  0  0  0
 24 26  1  0  0  0  0
 24 51  1  0  0  0  0
 27 28  2  0  0  0  0
 27 30  1  0  0  0  0
 28 29  1  0  0  0  0
 28 31  1  0  0  0  0
 29 32  1  0  0  0  0
 30 35  2  0  0  0  0
 30 53  1  0  0  0  0
 31 33  2  0  0  0  0
 31 52  1  0  0  0  0
 32 34  2  0  0  0  0
 32 54  1  0  0  0  0
 33 34  1  0  0  0  0
 35 55  1  0  0  0  0
 36 56  1  0  0  0  0
 36 57  1  0  0  0  0
 36 58  1  0  0  0  0
 37 59  1  0  0  0  0
 37 60  1  0  0  0  0
 37 61  1  0  0  0  0
M  END
> <PUBCHEM_COMPOUND_CID>
25102847

> <PUBCHEM_COMPOUND_CANONICALIZED>
1

> <PUBCHEM_CACTVS_COMPLEXITY>
795

> <PUBCHEM_CACTVS_HBOND_ACCEPTOR>
7

> <PUBCHEM_CACTVS_HBOND_DONOR>
2

> <PUBCHEM_CACTVS_ROTATABLE_BOND>
8

> <PUBCHEM_CACTVS_SUBSKEYS>
AAADceB7OQAAAAAAAAAAAAAAGAAAAAAAAAA8YMEAAAAAAACx9AAAHwAQAAAADgzBng4+xvLIFACoAzV3VACCiCAxIiAI2CE+7JgNJvrM8ZuGOCrm1BnK6Afw8L8OIEABAgACQABAgAIEAASAAAAAAAAAAA==

> <PUBCHEM_IUPAC_OPENEYE_NAME>
N1-[4-[(6,7-dimethoxy-4-quinolyl)oxy]phenyl]-N1'-(4-fluorophenyl)cyclopropane-1,1-dicarboxamide

> <PUBCHEM_IUPAC_CAS_NAME>
N1-[4-[(6,7-dimethoxy-4-quinolinyl)oxy]phenyl]-N1'-(4-fluorophenyl)cyclopropane-1,1-dicarboxamide

> <PUBCHEM_IUPAC_NAME_MARKUP>
1-<I>N</I>-[4-(6,7-dimethoxyquinolin-4-yl)oxyphenyl]-1-<I>N</I>&apos;-(4-fluorophenyl)cyclopropane-1,1-dicarboxamide

> <PUBCHEM_IUPAC_NAME>
1-N-[4-(6,7-dimethoxyquinolin-4-yl)oxyphenyl]-1-N'-(4-fluorophenyl)cyclopropane-1,1-dicarboxamide

> <PUBCHEM_IUPAC_SYSTEMATIC_NAME>
N1-[4-(6,7-dimethoxyquinolin-4-yl)oxyphenyl]-N1'-(4-fluorophenyl)cyclopropane-1,1-dicarboxamide

> <PUBCHEM_IUPAC_TRADITIONAL_NAME>
N-[4-[(6,7-dimethoxy-4-quinolyl)oxy]phenyl]-N'-(4-fluorophenyl)cyclopropane-1,1-dicarboxamide

> <PUBCHEM_IUPAC_INCHI>
InChI=1S/C28H24FN3O5/c1-35-24-15-21-22(16-25(24)36-2)30-14-11-23(21)37-20-9-7-19(8-10-20)32-27(34)28(12-13-28)26(33)31-18-5-3-17(29)4-6-18/h3-11,14-16H,12-13H2,1-2H3,(H,31,33)(H,32,34)

> <PUBCHEM_IUPAC_INCHIKEY>
ONIQOQHATWINJY-UHFFFAOYSA-N

> <PUBCHEM_XLOGP3_AA>
5.4

> <PUBCHEM_EXACT_MASS>
501.16999904

> <PUBCHEM_MOLECULAR_FORMULA>
C28H24FN3O5

> <PUBCHEM_MOLECULAR_WEIGHT>
501.5

> <PUBCHEM_OPENEYE_CAN_SMILES>
COC1=CC2=C(C=CN=C2C=C1OC)OC3=CC=C(C=C3)NC(=O)C4(CC4)C(=O)NC5=CC=C(C=C5)F

> <PUBCHEM_OPENEYE_ISO_SMILES>
COC1=CC2=C(C=CN=C2C=C1OC)OC3=CC=C(C=C3)NC(=O)C4(CC4)C(=O)NC5=CC=C(C=C5)F

> <PUBCHEM_CACTVS_TPSA>
98.8

> <PUBCHEM_MONOISOTOPIC_WEIGHT>
501.16999904

> <PUBCHEM_TOTAL_CHARGE>
0

> <PUBCHEM_HEAVY_ATOM_COUNT>
37

> <PUBCHEM_ATOM_DEF_STEREO_COUNT>
0

> <PUBCHEM_ATOM_UDEF_STEREO_COUNT>
0

> <PUBCHEM_BOND_DEF_STEREO_COUNT>
0

> <PUBCHEM_BOND_UDEF_STEREO_COUNT>
0

> <PUBCHEM_ISOTOPIC_ATOM_COUNT>
0

> <PUBCHEM_COMPONENT_COUNT>
1

> <PUBCHEM_CACTVS_TAUTO_COUNT>
-1

> <PUBCHEM_COORDINATE_TYPE>
1
5
255

> <PUBCHEM_BONDANNOTATIONS>
15  17  8
15  18  8
16  19  8
16  20  8
17  21  8
18  22  8
19  23  8
20  24  8
21  25  8
22  25  8
23  26  8
24  26  8
27  28  8
27  30  8
28  29  8
28  31  8
29  32  8
30  35  8
31  33  8
32  34  8
33  34  8
9  29  8
9  35  8

$$$$
52920501
  -OEChem-11282412102D

 62 65  0     0  0  0  0  0  0999 V2000
    4.5981   -1.5000    0.0000 S   0  0  0  0  0  0  0  0  0  0  0  0
    5.0981   -2.3660    0.0000 O   0  0  0  0  0  0  0  0  0  0  0  0
    4.0981   -0.6340    0.0000 O   0  0  0  0  0  0  0  0  0  0  0  0
    8.9282    5.0000    0.0000 O   0  0  0  0  0  0  0  0  0  0  0  0
    3.7320   -2.0000    0.0000 N   0  0  0  0  0  0  0  0  0  0  0  0
    2.8660   -4.5000    0.0000 N   0  0  0  0  0  0  0  0  0  0  0  0
   12.4725    3.1953    0.0000 N   0  0  0  0  0  0  0  0  0  0  0  0
    7.1962    2.0000    0.0000 N   0  0  0  0  0  0  0  0  0  0  0  0
    8.0622    3.5000    0.0000 N   0  0  0  0  0  0  0  0  0  0  0  0
    6.3301    3.5000    0.0000 N   0  0  0  0  0  0  0  0  0  0  0  0
    5.4641   -1.0000    0.0000 C   0  0  0  0  0  0  0  0  0  0  0  0
    3.7320   -3.0000    0.0000 C   0  0  0  0  0  0  0  0  0  0  0  0
    2.8660   -3.5000    0.0000 C   0  0  0  0  0  0  0  0  0  0  0  0
    5.4641    0.0000    0.0000 C   0  0  0  0  0  0  0  0  0  0  0  0
    6.3301    0.5000    0.0000 C   0  0  0  0  0  0  0  0  0  0  0  0
   11.5263    4.5000    0.0000 C   0  0  0  0  0  0  0  0  0  0  0  0
   11.5263    3.5000    0.0000 C   0  0  0  0  0  0  0  0  0  0  0  0
    4.5981    0.5000    0.0000 C   0  0  0  0  0  0  0  0  0  0  0  0
    6.3301    1.5000    0.0000 C   0  0  0  0  0  0  0  0  0  0  0  0
   13.0561    4.0000    0.0000 C   0  0  0  0  0  0  0  0  0  0  0  0
   12.4725    4.8047    0.0000 C   0  0  0  0  0  0  0  0  0  0  0  0
   10.6603    5.0000    0.0000 C   0  0  0  0  0  0  0  0  0  0  0  0
    2.0000   -5.0000    0.0000 C   0  0  0  0  0  0  0  0  0  0  0  0
    3.7320   -5.0000    0.0000 C   0  0  0  0  0  0  0  0  0  0  0  0
    4.5981    1.5000    0.0000 C   0  0  0  0  0  0  0  0  0  0  0  0
    5.4641    2.0000    0.0000 C   0  0  0  0  0  0  0  0  0  0  0  0
   10.6603    3.0000    0.0000 C   0  0  0  0  0  0  0  0  0  0  0  0
    9.7942    4.5000    0.0000 C   0  0  0  0  0  0  0  0  0  0  0  0
    9.7942    3.5000    0.0000 C   0  0  0  0  0  0  0  0  0  0  0  0
   14.0561    4.0000    0.0000 C   0  0  0  0  0  0  0  0  0  0  0  0
    7.1962    3.0000    0.0000 C   0  0  0  0  0  0  0  0  0  0  0  0
    8.0622    4.5000    0.0000 C   0  0  0  0  0  0  0  0  0  0  0  0
    7.1962    5.0000    0.0000 C   0  0  0  0  0  0  0  0  0  0  0  0
    6.3301    4.5000    0.0000 C   0  0  0  0  0  0  0  0  0  0  0  0
    5.6762   -1.5826    0.0000 H   0  0  0  0  0  0  0  0  0  0  0  0
    6.0747   -0.8923    0.0000 H   0  0  0  0  0  0  0  0  0  0  0  0
    3.9441   -3.5826    0.0000 H   0  0  0  0  0  0  0  0  0  0  0  0
    4.3426   -2.8923    0.0000 H   0  0  0  0  0  0  0  0  0  0  0  0
    2.6540   -2.9174    0.0000 H   0  0  0  0  0  0  0  0  0  0  0  0
    2.2554   -3.6077    0.0000 H   0  0  0  0  0  0  0  0  0  0  0  0
    3.1951   -1.6900    0.0000 H   0  0  0  0  0  0  0  0  0  0  0  0
    6.8671    0.1900    0.0000 H   0  0  0  0  0  0  0  0  0  0  0  0
    4.0611    0.1900    0.0000 H   0  0  0  0  0  0  0  0  0  0  0  0
   12.6651    5.3940    0.0000 H   0  0  0  0  0  0  0  0  0  0  0  0
   12.6651    2.6060    0.0000 H   0  0  0  0  0  0  0  0  0  0  0  0
   10.6603    5.6200    0.0000 H   0  0  0  0  0  0  0  0  0  0  0  0
    1.6900   -4.4631    0.0000 H   0  0  0  0  0  0  0  0  0  0  0  0
    1.4631   -5.3100    0.0000 H   0  0  0  0  0  0  0  0  0  0  0  0
    2.3100   -5.5369    0.0000 H   0  0  0  0  0  0  0  0  0  0  0  0
    3.4220   -5.5369    0.0000 H   0  0  0  0  0  0  0  0  0  0  0  0
    4.2690   -5.3100    0.0000 H   0  0  0  0  0  0  0  0  0  0  0  0
    4.0420   -4.4631    0.0000 H   0  0  0  0  0  0  0  0  0  0  0  0
    4.0611    1.8100    0.0000 H   0  0  0  0  0  0  0  0  0  0  0  0
    5.4641    2.6200    0.0000 H   0  0  0  0  0  0  0  0  0  0  0  0
   10.6603    2.3800    0.0000 H   0  0  0  0  0  0  0  0  0  0  0  0
    9.2573    3.1900    0.0000 H   0  0  0  0  0  0  0  0  0  0  0  0
    7.7331    1.6900    0.0000 H   0  0  0  0  0  0  0  0  0  0  0  0
   14.0561    3.3800    0.0000 H   0  0  0  0  0  0  0  0  0  0  0  0
   14.6761    4.0000    0.0000 H   0  0  0  0  0  0  0  0  0  0  0  0
   14.0561    4.6200    0.0000 H   0  0  0  0  0  0  0  0  0  0  0  0
    7.1962    5.6200    0.0000 H   0  0  0  0  0  0  0  0  0  0  0  0
    5.7932    4.8100    0.0000 H   0  0  0  0  0  0  0  0  0  0  0  0
  1  2  2  0  0  0  0
  1  3  2  0  0  0  0
  1  5  1  0  0  0  0
  1 11  1  0  0  0  0
  4 28  1  0  0  0  0
  4 32  1  0  0  0  0
  5 12  1  0  0  0  0
  5 41  1  0  0  0  0
  6 13  1  0  0  0  0
  6 23  1  0  0  0  0
  6 24  1  0  0  0  0
  7 17  1  0  0  0  0
  7 20  1  0  0  0  0
  7 45  1  0  0  0  0
  8 19  1  0  0  0  0
  8 31  1  0  0  0  0
  8 57  1  0  0  0  0
  9 31  1  0  0  0  0
  9 32  2  0  0  0  0
 10 31  2  0  0  0  0
 10 34  1  0  0  0  0
 11 14  1  0  0  0  0
 11 35  1  0  0  0  0
 11 36  1  0  0  0  0
 12 13  1  0  0  0  0
 12 37  1  0  0  0  0
 12 38  1  0  0  0  0
 13 39  1  0  0  0  0
 13 40  1  0  0  0  0
 14 15  2  0  0  0  0
 14 18  1  0  0  0  0
 15 19  1  0  0  0  0
 15 42  1  0  0  0  0
 16 17  2  0  0  0  0
 16 21  1  0  0  0  0
 16 22  1  0  0  0  0
 17 27  1  0  0  0  0
 18 25  2  0  0  0  0
 18 43  1  0  0  0  0
 19 26  2  0  0  0  0
 20 21  2  0  0  0  0
 20 30  1  0  0  0  0
 21 44  1  0  0  0  0
 22 28  2  0  0  0  0
 22 46  1  0  0  0  0
 23 47  1  0  0  0  0
 23 48  1  0  0  0  0
 23 49  1  0  0  0  0
 24 50  1  0  0  0  0
 24 51  1  0  0  0  0
 24 52  1  0  0  0  0
 25 26  1  0  0  0  0
 25 53  1  0  0  0  0
 26 54  1  0  0  0  0
 27 29  2  0  0  0  0
 27 55  1  0  0  0  0
 28 29  1  0  0  0  0
 29 56  1  0  0  0  0
 30 58  1  0  0  0  0
 30 59  1  0  0  0  0
 30 60  1  0  0  0  0
 32 33  1  0  0  0  0
 33 34  2  0  0  0  0
 33 61  1  0  0  0  0
 34 62  1  0  0  0  0
M  END
> <PUBCHEM_COMPOUND_CID>
52920501

> <PUBCHEM_COMPOUND_CANONICALIZED>
1

> <PUBCHEM_CACTVS_COMPLEXITY>
733

> <PUBCHEM_CACTVS_HBOND_ACCEPTOR>
8

> <PUBCHEM_CACTVS_HBOND_DONOR>
3

> <PUBCHEM_CACTVS_ROTATABLE_BOND>
10

> <PUBCHEM_CACTVS_SUBSKEYS>
AAADceB7sABAAAAAAAAAAAAAAAAAAWAAAAA8YIAAAAAAAFgB/AAAHgQQQAAADAzF3gS/1vfJlAKgAzRnZHDCiCkxIqAJ2aA+bJiMbuLE+duePCju0BvI6Cew0LMOAEABQAACAAAAgAKAAAQAAAAAAAAAAA==

> <PUBCHEM_IUPAC_OPENEYE_NAME>
N-[2-(dimethylamino)ethyl]-1-[3-[[4-[(2-methyl-1H-indol-5-yl)oxy]pyrimidin-2-yl]amino]phenyl]methanesulfonamide

> <PUBCHEM_IUPAC_CAS_NAME>
N-[2-(dimethylamino)ethyl]-1-[3-[[4-[(2-methyl-1H-indol-5-yl)oxy]-2-pyrimidinyl]amino]phenyl]methanesulfonamide

> <PUBCHEM_IUPAC_NAME_MARKUP>
<I>N</I>-[2-(dimethylamino)ethyl]-1-[3-[[4-[(2-methyl-1<I>H</I>-indol-5-yl)oxy]pyrimidin-2-yl]amino]phenyl]methanesulfonamide

> <PUBCHEM_IUPAC_NAME>
N-[2-(dimethylamino)ethyl]-1-[3-[[4-[(2-methyl-1H-indol-5-yl)oxy]pyrimidin-2-yl]amino]phenyl]methanesulfonamide

> <PUBCHEM_IUPAC_SYSTEMATIC_NAME>
N-[2-(dimethylamino)ethyl]-1-[3-[[4-[(2-methyl-1H-indol-5-yl)oxy]pyrimidin-2-yl]amino]phenyl]methanesulfonamide

> <PUBCHEM_IUPAC_TRADITIONAL_NAME>
N-[2-(dimethylamino)ethyl]-1-[3-[[4-[(2-methyl-1H-indol-5-yl)oxy]pyrimidin-2-yl]amino]phenyl]methanesulfonamide

> <PUBCHEM_IUPAC_INCHI>
InChI=1S/C24H28N6O3S/c1-17-13-19-15-21(7-8-22(19)27-17)33-23-9-10-25-24(29-23)28-20-6-4-5-18(14-20)16-34(31,32)26-11-12-30(2)3/h4-10,13-15,26-27H,11-12,16H2,1-3H3,(H,25,28,29)

> <PUBCHEM_IUPAC_INCHIKEY>
TTZSNFLLYPYKIL-UHFFFAOYSA-N

> <PUBCHEM_XLOGP3_AA>
3.4

> <PUBCHEM_EXACT_MASS>
480.19435995

> <PUBCHEM_MOLECULAR_FORMULA>
C24H28N6O3S

> <PUBCHEM_MOLECULAR_WEIGHT>
480.6

> <PUBCHEM_OPENEYE_CAN_SMILES>
CC1=CC2=C(N1)C=CC(=C2)OC3=NC(=NC=C3)NC4=CC=CC(=C4)CS(=O)(=O)NCCN(C)C

> <PUBCHEM_OPENEYE_ISO_SMILES>
CC1=CC2=C(N1)C=CC(=C2)OC3=NC(=NC=C3)NC4=CC=CC(=C4)CS(=O)(=O)NCCN(C)C

> <PUBCHEM_CACTVS_TPSA>
121

> <PUBCHEM_MONOISOTOPIC_WEIGHT>
480.19435995

> <PUBCHEM_TOTAL_CHARGE>
0

> <PUBCHEM_HEAVY_ATOM_COUNT>
34

> <PUBCHEM_ATOM_DEF_STEREO_COUNT>
0

> <PUBCHEM_ATOM_UDEF_STEREO_COUNT>
0

> <PUBCHEM_BOND_DEF_STEREO_COUNT>
0

> <PUBCHEM_BOND_UDEF_STEREO_COUNT>
0

> <PUBCHEM_ISOTOPIC_ATOM_COUNT>
0

> <PUBCHEM_COMPONENT_COUNT>
1

> <PUBCHEM_CACTVS_TAUTO_COUNT>
3

> <PUBCHEM_COORDINATE_TYPE>
1
5
255

> <PUBCHEM_BONDANNOTATIONS>
10  31  8
10  34  8
14  15  8
14  18  8
15  19  8
16  17  8
16  21  8
16  22  8
17  27  8
18  25  8
19  26  8
20  21  8
22  28  8
25  26  8
27  29  8
28  29  8
32  33  8
33  34  8
7  17  8
7  20  8
9  31  8
9  32  8

$$$$
9915743
  -OEChem-11282412102D

 69 72  0     0  0  0  0  0  0999 V2000
   14.1405   -0.2225    0.0000 Cl  0  0  0  0  0  0  0  0  0  0  0  0
    7.1962   -3.2972    0.0000 O   0  0  0  0  0  0  0  0  0  0  0  0
   14.1174    1.7773    0.0000 O   0  0  0  0  0  0  0  0  0  0  0  0
    6.3301   -2.7972    0.0000 O   0  0  0  0  0  0  0  0  0  0  0  0
   10.6766   -0.2626    0.0000 N   0  0  0  0  0  0  0  0  0  0  0  0
   10.6882   -3.3318    0.0000 N   0  0  0  0  0  0  0  0  0  0  0  0
    7.1962   -1.2972    0.0000 N   0  0  0  0  0  0  0  0  0  0  0  0
    2.8660   -1.7972    0.0000 N   0  0  0  0  0  0  0  0  0  0  0  0
   13.3224   -0.7697    0.0000 N   0  0  0  0  0  0  0  0  0  0  0  0
   15.8377    2.7973    0.0000 N   0  0  0  0  0  0  0  0  0  0  0  0
    9.7942   -1.7972    0.0000 C   0  0  0  0  0  0  0  0  0  0  0  0
   10.6882   -1.2625    0.0000 C   0  0  0  0  0  0  0  0  0  0  0  0
    9.7942   -2.7972    0.0000 C   0  0  0  0  0  0  0  0  0  0  0  0
    8.9282   -1.2972    0.0000 C   0  0  0  0  0  0  0  0  0  0  0  0
    8.0622   -1.7972    0.0000 C   0  0  0  0  0  0  0  0  0  0  0  0
    8.0622   -2.7972    0.0000 C   0  0  0  0  0  0  0  0  0  0  0  0
    8.9282   -3.2972    0.0000 C   0  0  0  0  0  0  0  0  0  0  0  0
   11.5942   -1.7764    0.0000 C   0  0  0  0  0  0  0  0  0  0  0  0
   11.5368    0.2474    0.0000 C   0  0  0  0  0  0  0  0  0  0  0  0
   11.5942   -2.8180    0.0000 C   0  0  0  0  0  0  0  0  0  0  0  0
   12.4085   -0.2426    0.0000 C   0  0  0  0  0  0  0  0  0  0  0  0
   11.5252    1.2473    0.0000 C   0  0  0  0  0  0  0  0  0  0  0  0
    7.1962   -4.2972    0.0000 C   0  0  0  0  0  0  0  0  0  0  0  0
    6.3301   -1.7972    0.0000 C   0  0  0  0  0  0  0  0  0  0  0  0
   13.2572    1.2674    0.0000 C   0  0  0  0  0  0  0  0  0  0  0  0
   13.2687    0.2674    0.0000 C   0  0  0  0  0  0  0  0  0  0  0  0
   12.3854    1.7573    0.0000 C   0  0  0  0  0  0  0  0  0  0  0  0
   12.4583   -1.2730    0.0000 C   0  0  0  0  0  0  0  0  0  0  0  0
    3.7320   -1.2972    0.0000 C   0  0  0  0  0  0  0  0  0  0  0  0
    5.4641   -1.2972    0.0000 C   0  0  0  0  0  0  0  0  0  0  0  0
    4.5981   -1.7972    0.0000 C   0  0  0  0  0  0  0  0  0  0  0  0
    6.3301   -4.7972    0.0000 C   0  0  0  0  0  0  0  0  0  0  0  0
   14.1058    2.7773    0.0000 C   0  0  0  0  0  0  0  0  0  0  0  0
    2.0000   -1.2972    0.0000 C   0  0  0  0  0  0  0  0  0  0  0  0
    2.8660   -2.7972    0.0000 C   0  0  0  0  0  0  0  0  0  0  0  0
   14.9660    3.2873    0.0000 C   0  0  0  0  0  0  0  0  0  0  0  0
   14.9544    4.2872    0.0000 C   0  0  0  0  0  0  0  0  0  0  0  0
   15.8146    4.7972    0.0000 C   0  0  0  0  0  0  0  0  0  0  0  0
   16.6979    3.3073    0.0000 C   0  0  0  0  0  0  0  0  0  0  0  0
   16.6863    4.3072    0.0000 C   0  0  0  0  0  0  0  0  0  0  0  0
    8.9282   -0.6772    0.0000 H   0  0  0  0  0  0  0  0  0  0  0  0
    8.9282   -3.9172    0.0000 H   0  0  0  0  0  0  0  0  0  0  0  0
   10.1361    0.0412    0.0000 H   0  0  0  0  0  0  0  0  0  0  0  0
   12.1300   -3.1301    0.0000 H   0  0  0  0  0  0  0  0  0  0  0  0
    7.1962   -0.6772    0.0000 H   0  0  0  0  0  0  0  0  0  0  0  0
   12.4157   -0.8625    0.0000 H   0  0  0  0  0  0  0  0  0  0  0  0
   10.9847    1.5511    0.0000 H   0  0  0  0  0  0  0  0  0  0  0  0
    7.4082   -4.8798    0.0000 H   0  0  0  0  0  0  0  0  0  0  0  0
    7.8067   -4.1895    0.0000 H   0  0  0  0  0  0  0  0  0  0  0  0
   12.3782    2.3773    0.0000 H   0  0  0  0  0  0  0  0  0  0  0  0
    4.1306   -0.8222    0.0000 H   0  0  0  0  0  0  0  0  0  0  0  0
    3.3335   -0.8222    0.0000 H   0  0  0  0  0  0  0  0  0  0  0  0
    5.4641   -0.6772    0.0000 H   0  0  0  0  0  0  0  0  0  0  0  0
    4.5981   -2.4172    0.0000 H   0  0  0  0  0  0  0  0  0  0  0  0
    6.0201   -4.2602    0.0000 H   0  0  0  0  0  0  0  0  0  0  0  0
    5.7932   -5.1072    0.0000 H   0  0  0  0  0  0  0  0  0  0  0  0
    6.6401   -5.3341    0.0000 H   0  0  0  0  0  0  0  0  0  0  0  0
   13.8870    3.3574    0.0000 H   0  0  0  0  0  0  0  0  0  0  0  0
   13.4965    2.6626    0.0000 H   0  0  0  0  0  0  0  0  0  0  0  0
    2.3100   -0.7602    0.0000 H   0  0  0  0  0  0  0  0  0  0  0  0
    1.4631   -0.9872    0.0000 H   0  0  0  0  0  0  0  0  0  0  0  0
    1.6900   -1.8341    0.0000 H   0  0  0  0  0  0  0  0  0  0  0  0
    2.2460   -2.7972    0.0000 H   0  0  0  0  0  0  0  0  0  0  0  0
    2.8660   -3.4172    0.0000 H   0  0  0  0  0  0  0  0  0  0  0  0
    3.4860   -2.7972    0.0000 H   0  0  0  0  0  0  0  0  0  0  0  0
   14.4139    4.5910    0.0000 H   0  0  0  0  0  0  0  0  0  0  0  0
   15.8074    5.4171    0.0000 H   0  0  0  0  0  0  0  0  0  0  0  0
   17.2384    3.0035    0.0000 H   0  0  0  0  0  0  0  0  0  0  0  0
   17.2197    4.6234    0.0000 H   0  0  0  0  0  0  0  0  0  0  0  0
  1 26  1  0  0  0  0
  2 16  1  0  0  0  0
  2 23  1  0  0  0  0
  3 25  1  0  0  0  0
  3 33  1  0  0  0  0
  4 24  2  0  0  0  0
  5 12  1  0  0  0  0
  5 19  1  0  0  0  0
  5 43  1  0  0  0  0
  6 13  1  0  0  0  0
  6 20  2  0  0  0  0
  7 15  1  0  0  0  0
  7 24  1  0  0  0  0
  7 45  1  0  0  0  0
  8 29  1  0  0  0  0
  8 34  1  0  0  0  0
  8 35  1  0  0  0  0
  9 28  3  0  0  0  0
 10 36  1  0  0  0  0
 10 39  2  0  0  0  0
 11 12  1  0  0  0  0
 11 13  1  0  0  0  0
 11 14  2  0  0  0  0
 12 18  2  0  0  0  0
 13 17  2  0  0  0  0
 14 15  1  0  0  0  0
 14 41  1  0  0  0  0
 15 16  2  0  0  0  0
 16 17  1  0  0  0  0
 17 42  1  0  0  0  0
 18 20  1  0  0  0  0
 18 28  1  0  0  0  0
 19 21  2  0  0  0  0
 19 22  1  0  0  0  0
 20 44  1  0  0  0  0
 21 26  1  0  0  0  0
 21 46  1  0  0  0  0
 22 27  2  0  0  0  0
 22 47  1  0  0  0  0
 23 32  1  0  0  0  0
 23 48  1  0  0  0  0
 23 49  1  0  0  0  0
 24 30  1  0  0  0  0
 25 26  2  0  0  0  0
 25 27  1  0  0  0  0
 27 50  1  0  0  0  0
 29 31  1  0  0  0  0
 29 51  1  0  0  0  0
 29 52  1  0  0  0  0
 30 31  2  0  0  0  0
 30 53  1  0  0  0  0
 31 54  1  0  0  0  0
 32 55  1  0  0  0  0
 32 56  1  0  0  0  0
 32 57  1  0  0  0  0
 33 36  1  0  0  0  0
 33 58  1  0  0  0  0
 33 59  1  0  0  0  0
 34 60  1  0  0  0  0
 34 61  1  0  0  0  0
 34 62  1  0  0  0  0
 35 63  1  0  0  0  0
 35 64  1  0  0  0  0
 35 65  1  0  0  0  0
 36 37  2  0  0  0  0
 37 38  1  0  0  0  0
 37 66  1  0  0  0  0
 38 40  2  0  0  0  0
 38 67  1  0  0  0  0
 39 40  1  0  0  0  0
 39 68  1  0  0  0  0
 40 69  1  0  0  0  0
M  END
> <PUBCHEM_COMPOUND_CID>
9915743

> <PUBCHEM_COMPOUND_CANONICALIZED>
1

> <PUBCHEM_CACTVS_COMPLEXITY>
881

> <PUBCHEM_CACTVS_HBOND_ACCEPTOR>
8

> <PUBCHEM_CACTVS_HBOND_DONOR>
2

> <PUBCHEM_CACTVS_ROTATABLE_BOND>
11

> <PUBCHEM_CACTVS_SUBSKEYS>
AAADceB7sAAEAAAAAAAAAAAAAAAAAAAAAAA8eIEAAAAAAACx/AAAHgIQAAAADA7hniY+xvPIFAC4BzV3VASiiCAxJ2AI2CA/b9gOpuPF89uHPCjm1BnY6Y+w0OMOIECAQgICGABAgQCEBAQwAAAAAAAAAA==

> <PUBCHEM_IUPAC_OPENEYE_NAME>
(E)-N-[4-[3-chloro-4-(2-pyridylmethoxy)anilino]-3-cyano-7-ethoxy-6-quinolyl]-4-(dimethylamino)but-2-enamide

> <PUBCHEM_IUPAC_CAS_NAME>
(E)-N-[4-[3-chloro-4-(2-pyridinylmethoxy)anilino]-3-cyano-7-ethoxy-6-quinolinyl]-4-(dimethylamino)-2-butenamide

> <PUBCHEM_IUPAC_NAME_MARKUP>
(<I>E</I>)-<I>N</I>-[4-[3-chloro-4-(pyridin-2-ylmethoxy)anilino]-3-cyano-7-ethoxyquinolin-6-yl]-4-(dimethylamino)but-2-enamide

> <PUBCHEM_IUPAC_NAME>
(E)-N-[4-[3-chloro-4-(pyridin-2-ylmethoxy)anilino]-3-cyano-7-ethoxyquinolin-6-yl]-4-(dimethylamino)but-2-enamide

> <PUBCHEM_IUPAC_SYSTEMATIC_NAME>
(E)-N-[4-[[3-chloranyl-4-(pyridin-2-ylmethoxy)phenyl]amino]-3-cyano-7-ethoxy-quinolin-6-yl]-4-(dimethylamino)but-2-enamide

> <PUBCHEM_IUPAC_TRADITIONAL_NAME>
(E)-N-[4-[3-chloro-4-(2-pyridylmethoxy)anilino]-3-cyano-7-ethoxy-6-quinolyl]-4-(dimethylamino)but-2-enamide

> <PUBCHEM_IUPAC_INCHI>
InChI=1S/C30H29ClN6O3/c1-4-39-28-16-25-23(15-26(28)36-29(38)9-7-13-37(2)3)30(20(17-32)18-34-25)35-21-10-11-27(24(31)14-21)40-19-22-8-5-6-12-33-22/h5-12,14-16,18H,4,13,19H2,1-3H3,(H,34,35)(H,36,38)/b9-7+

> <PUBCHEM_IUPAC_INCHIKEY>
JWNPDZNEKVCWMY-VQHVLOKHSA-N

> <PUBCHEM_XLOGP3_AA>
4.9

> <PUBCHEM_EXACT_MASS>
556.1989665

> <PUBCHEM_MOLECULAR_FORMULA>
C30H29ClN6O3

> <PUBCHEM_MOLECULAR_WEIGHT>
557.0

> <PUBCHEM_OPENEYE_CAN_SMILES>
CCOC1=C(C=C2C(=C1)N=CC(=C2NC3=CC(=C(C=C3)OCC4=CC=CC=N4)Cl)C#N)NC(=O)C=CCN(C)C

> <PUBCHEM_OPENEYE_ISO_SMILES>
CCOC1=C(C=C2C(=C1)N=CC(=C2NC3=CC(=C(C=C3)OCC4=CC=CC=N4)Cl)C#N)NC(=O)/C=C/CN(C)C

> <PUBCHEM_CACTVS_TPSA>
112

> <PUBCHEM_MONOISOTOPIC_WEIGHT>
556.1989665

> <PUBCHEM_TOTAL_CHARGE>
0

> <PUBCHEM_HEAVY_ATOM_COUNT>
40

> <PUBCHEM_ATOM_DEF_STEREO_COUNT>
0

> <PUBCHEM_ATOM_UDEF_STEREO_COUNT>
0

> <PUBCHEM_BOND_DEF_STEREO_COUNT>
1

> <PUBCHEM_BOND_UDEF_STEREO_COUNT>
0

> <PUBCHEM_ISOTOPIC_ATOM_COUNT>
0

> <PUBCHEM_COMPONENT_COUNT>
1

> <PUBCHEM_CACTVS_TAUTO_COUNT>
-1

> <PUBCHEM_COORDINATE_TYPE>
1
5
255

> <PUBCHEM_BONDANNOTATIONS>
10  36  8
10  39  8
11  12  8
11  13  8
11  14  8
12  18  8
13  17  8
14  15  8
15  16  8
16  17  8
18  20  8
19  21  8
19  22  8
21  26  8
22  27  8
25  26  8
25  27  8
36  37  8
37  38  8
38  40  8
39  40  8
6  13  8
6  20  8

$$$$
86705695
  -OEChem-11282412102D

 62 66  0     0  0  0  0  0  0999 V2000
   10.9081   -1.0304    0.0000 F   0  0  0  0  0  0  0  0  0  0  0  0
    9.1876    1.9763    0.0000 F   0  0  0  0  0  0  0  0  0  0  0  0
    2.5000    0.5259    0.0000 O   0  0  0  0  0  0  0  0  0  0  0  0
    8.2740    1.4971    0.0000 O   0  0  0  0  0  0  0  0  0  0  0  0
   10.9235    2.9696    0.0000 O   0  0  0  0  0  0  0  0  0  0  0  0
   12.6440   -0.0371    0.0000 O   0  0  0  0  0  0  0  0  0  0  0  0
    3.5000   -1.2062    0.0000 N   0  0  0  0  0  0  0  0  0  0  0  0
    7.3798   -0.0307    0.0000 N   0  0  0  0  0  0  0  0  0  0  0  0
    9.1799   -0.0237    0.0000 N   0  0  0  0  0  0  0  0  0  0  0  0
    5.5836   -2.8769    0.0000 N   0  0  0  0  0  0  0  0  0  0  0  0
    7.3958   -3.0722    0.0000 N   0  0  0  0  0  0  0  0  0  0  0  0
    7.3958   -1.0722    0.0000 C   0  0  0  0  0  0  0  0  0  0  0  0
    6.5298   -1.5722    0.0000 C   0  0  0  0  0  0  0  0  0  0  0  0
    4.0000   -2.0722    0.0000 C   0  0  0  0  0  0  0  0  0  0  0  0
    8.2619   -1.5722    0.0000 C   0  0  0  0  0  0  0  0  0  0  0  0
    5.0000   -2.0722    0.0000 C   0  0  0  0  0  0  0  0  0  0  0  0
    9.1719   -1.0653    0.0000 C   0  0  0  0  0  0  0  0  0  0  0  0
    6.5298   -2.5722    0.0000 C   0  0  0  0  0  0  0  0  0  0  0  0
    5.5836   -1.2674    0.0000 C   0  0  0  0  0  0  0  0  0  0  0  0
    2.5000   -1.2062    0.0000 C   0  0  0  0  0  0  0  0  0  0  0  0
    4.0000   -0.3401    0.0000 C   0  0  0  0  0  0  0  0  0  0  0  0
    8.2778    0.4971    0.0000 C   0  0  0  0  0  0  0  0  0  0  0  0
    2.0000   -0.3401    0.0000 C   0  0  0  0  0  0  0  0  0  0  0  0
    3.5000    0.5259    0.0000 C   0  0  0  0  0  0  0  0  0  0  0  0
    6.5080    0.4593    0.0000 C   0  0  0  0  0  0  0  0  0  0  0  0
    8.2619   -2.5722    0.0000 C   0  0  0  0  0  0  0  0  0  0  0  0
   10.0479    0.4729    0.0000 C   0  0  0  0  0  0  0  0  0  0  0  0
    6.4965    1.4592    0.0000 C   0  0  0  0  0  0  0  0  0  0  0  0
   10.9119   -0.0304    0.0000 C   0  0  0  0  0  0  0  0  0  0  0  0
   10.0517    1.4729    0.0000 C   0  0  0  0  0  0  0  0  0  0  0  0
   10.9197    1.9696    0.0000 C   0  0  0  0  0  0  0  0  0  0  0  0
   11.7799    0.4663    0.0000 C   0  0  0  0  0  0  0  0  0  0  0  0
   11.7837    1.4662    0.0000 C   0  0  0  0  0  0  0  0  0  0  0  0
   11.7915    3.4662    0.0000 C   0  0  0  0  0  0  0  0  0  0  0  0
   13.5119    0.4596    0.0000 C   0  0  0  0  0  0  0  0  0  0  0  0
    3.4174   -2.2842    0.0000 H   0  0  0  0  0  0  0  0  0  0  0  0
    4.1077   -2.6828    0.0000 H   0  0  0  0  0  0  0  0  0  0  0  0
    9.3764   -1.6506    0.0000 H   0  0  0  0  0  0  0  0  0  0  0  0
    9.7835   -0.9639    0.0000 H   0  0  0  0  0  0  0  0  0  0  0  0
    5.3910   -0.6781    0.0000 H   0  0  0  0  0  0  0  0  0  0  0  0
    1.9174   -1.4182    0.0000 H   0  0  0  0  0  0  0  0  0  0  0  0
    2.6077   -1.8167    0.0000 H   0  0  0  0  0  0  0  0  0  0  0  0
    4.4750   -0.7387    0.0000 H   0  0  0  0  0  0  0  0  0  0  0  0
    4.4750    0.0584    0.0000 H   0  0  0  0  0  0  0  0  0  0  0  0
    5.3910   -3.4662    0.0000 H   0  0  0  0  0  0  0  0  0  0  0  0
    1.5250    0.0584    0.0000 H   0  0  0  0  0  0  0  0  0  0  0  0
    1.5250   -0.7387    0.0000 H   0  0  0  0  0  0  0  0  0  0  0  0
    4.0826    0.7380    0.0000 H   0  0  0  0  0  0  0  0  0  0  0  0
    3.3923    1.1365    0.0000 H   0  0  0  0  0  0  0  0  0  0  0  0
    5.8963    0.5599    0.0000 H   0  0  0  0  0  0  0  0  0  0  0  0
    6.3027   -0.1257    0.0000 H   0  0  0  0  0  0  0  0  0  0  0  0
    8.7988   -2.8822    0.0000 H   0  0  0  0  0  0  0  0  0  0  0  0
    7.1164    1.4664    0.0000 H   0  0  0  0  0  0  0  0  0  0  0  0
    6.4893    2.0792    0.0000 H   0  0  0  0  0  0  0  0  0  0  0  0
    5.8765    1.4520    0.0000 H   0  0  0  0  0  0  0  0  0  0  0  0
   12.3219    1.7742    0.0000 H   0  0  0  0  0  0  0  0  0  0  0  0
   12.0994    2.9281    0.0000 H   0  0  0  0  0  0  0  0  0  0  0  0
   12.3296    3.7742    0.0000 H   0  0  0  0  0  0  0  0  0  0  0  0
   11.4835    4.0044    0.0000 H   0  0  0  0  0  0  0  0  0  0  0  0
   13.8199   -0.0786    0.0000 H   0  0  0  0  0  0  0  0  0  0  0  0
   14.0501    0.7675    0.0000 H   0  0  0  0  0  0  0  0  0  0  0  0
   13.2040    0.9977    0.0000 H   0  0  0  0  0  0  0  0  0  0  0  0
  1 29  1  0  0  0  0
  2 30  1  0  0  0  0
  3 23  1  0  0  0  0
  3 24  1  0  0  0  0
  4 22  2  0  0  0  0
  5 31  1  0  0  0  0
  5 34  1  0  0  0  0
  6 32  1  0  0  0  0
  6 35  1  0  0  0  0
  7 14  1  0  0  0  0
  7 20  1  0  0  0  0
  7 21  1  0  0  0  0
  8 12  1  0  0  0  0
  8 22  1  0  0  0  0
  8 25  1  0  0  0  0
  9 17  1  0  0  0  0
  9 22  1  0  0  0  0
  9 27  1  0  0  0  0
 10 16  1  0  0  0  0
 10 18  1  0  0  0  0
 10 45  1  0  0  0  0
 11 18  2  0  0  0  0
 11 26  1  0  0  0  0
 12 13  2  0  0  0  0
 12 15  1  0  0  0  0
 13 18  1  0  0  0  0
 13 19  1  0  0  0  0
 14 16  1  0  0  0  0
 14 36  1  0  0  0  0
 14 37  1  0  0  0  0
 15 17  1  0  0  0  0
 15 26  2  0  0  0  0
 16 19  2  0  0  0  0
 17 38  1  0  0  0  0
 17 39  1  0  0  0  0
 19 40  1  0  0  0  0
 20 23  1  0  0  0  0
 20 41  1  0  0  0  0
 20 42  1  0  0  0  0
 21 24  1  0  0  0  0
 21 43  1  0  0  0  0
 21 44  1  0  0  0  0
 23 46  1  0  0  0  0
 23 47  1  0  0  0  0
 24 48  1  0  0  0  0
 24 49  1  0  0  0  0
 25 28  1  0  0  0  0
 25 50  1  0  0  0  0
 25 51  1  0  0  0  0
 26 52  1  0  0  0  0
 27 29  2  0  0  0  0
 27 30  1  0  0  0  0
 28 53  1  0  0  0  0
 28 54  1  0  0  0  0
 28 55  1  0  0  0  0
 29 32  1  0  0  0  0
 30 31  2  0  0  0  0
 31 33  1  0  0  0  0
 32 33  2  0  0  0  0
 33 56  1  0  0  0  0
 34 57  1  0  0  0  0
 34 58  1  0  0  0  0
 34 59  1  0  0  0  0
 35 60  1  0  0  0  0
 35 61  1  0  0  0  0
 35 62  1  0  0  0  0
M  END
> <PUBCHEM_COMPOUND_CID>
86705695

> <PUBCHEM_COMPOUND_CANONICALIZED>
1

> <PUBCHEM_CACTVS_COMPLEXITY>
731

> <PUBCHEM_CACTVS_HBOND_ACCEPTOR>
8

> <PUBCHEM_CACTVS_HBOND_DONOR>
1

> <PUBCHEM_CACTVS_ROTATABLE_BOND>
6

> <PUBCHEM_CACTVS_SUBSKEYS>
AAADceB7uYAAAAAAAAAAAAAAAAAAAWAAAAA8WLEAAAAAAFix/AAAHwAQAAAADAzhnw4/9t/JlACoAzZndACCiCmxIqAB2SA+bJiOb+LE+duXNChv1h/Y6CeQ8E8OAAAACgAAAAAAAAAUAAAAAAAAAAAAAA==

> <PUBCHEM_IUPAC_OPENEYE_NAME>
11-(2,6-difluoro-3,5-dimethoxy-phenyl)-13-ethyl-4-(morpholinomethyl)-5,7,11,13-tetrazatricyclo[7.4.0.02,6]trideca-1,3,6,8-tetraen-12-one

> <PUBCHEM_IUPAC_CAS_NAME>
11-(2,6-difluoro-3,5-dimethoxyphenyl)-13-ethyl-4-(4-morpholinylmethyl)-5,7,11,13-tetrazatricyclo[7.4.0.02,6]trideca-1,3,6,8-tetraen-12-one

> <PUBCHEM_IUPAC_NAME_MARKUP>
11-(2,6-difluoro-3,5-dimethoxyphenyl)-13-ethyl-4-(morpholin-4-ylmethyl)-5,7,11,13-tetrazatricyclo[7.4.0.0<SUP>2,6</SUP>]trideca-1,3,6,8-tetraen-12-one

> <PUBCHEM_IUPAC_NAME>
11-(2,6-difluoro-3,5-dimethoxyphenyl)-13-ethyl-4-(morpholin-4-ylmethyl)-5,7,11,13-tetrazatricyclo[7.4.0.02,6]trideca-1,3,6,8-tetraen-12-one

> <PUBCHEM_IUPAC_SYSTEMATIC_NAME>
11-[2,6-bis(fluoranyl)-3,5-dimethoxy-phenyl]-13-ethyl-4-(morpholin-4-ylmethyl)-5,7,11,13-tetrazatricyclo[7.4.0.02,6]trideca-1,3,6,8-tetraen-12-one

> <PUBCHEM_IUPAC_TRADITIONAL_NAME>
11-(2,6-difluoro-3,5-dimethoxy-phenyl)-13-ethyl-4-(morpholinomethyl)-5,7,11,13-tetrazatricyclo[7.4.0.02,6]trideca-1,3,6,8-tetraen-12-one

> <PUBCHEM_IUPAC_INCHI>
InChI=1S/C24H27F2N5O4/c1-4-30-21-14(11-27-23-16(21)9-15(28-23)13-29-5-7-35-8-6-29)12-31(24(30)32)22-19(25)17(33-2)10-18(34-3)20(22)26/h9-11H,4-8,12-13H2,1-3H3,(H,27,28)

> <PUBCHEM_IUPAC_INCHIKEY>
HCDMJFOHIXMBOV-UHFFFAOYSA-N

> <PUBCHEM_XLOGP3_AA>
1.8

> <PUBCHEM_EXACT_MASS>
487.20311068

> <PUBCHEM_MOLECULAR_FORMULA>
C24H27F2N5O4

> <PUBCHEM_MOLECULAR_WEIGHT>
487.5

> <PUBCHEM_OPENEYE_CAN_SMILES>
CCN1C2=C3C=C(NC3=NC=C2CN(C1=O)C4=C(C(=CC(=C4F)OC)OC)F)CN5CCOCC5

> <PUBCHEM_OPENEYE_ISO_SMILES>
CCN1C2=C3C=C(NC3=NC=C2CN(C1=O)C4=C(C(=CC(=C4F)OC)OC)F)CN5CCOCC5

> <PUBCHEM_CACTVS_TPSA>
83.2

> <PUBCHEM_MONOISOTOPIC_WEIGHT>
487.20311068

> <PUBCHEM_TOTAL_CHARGE>
0

> <PUBCHEM_HEAVY_ATOM_COUNT>
35

> <PUBCHEM_ATOM_DEF_STEREO_COUNT>
0

> <PUBCHEM_ATOM_UDEF_STEREO_COUNT>
0

> <PUBCHEM_BOND_DEF_STEREO_COUNT>
0

> <PUBCHEM_BOND_UDEF_STEREO_COUNT>
0

> <PUBCHEM_ISOTOPIC_ATOM_COUNT>
0

> <PUBCHEM_COMPONENT_COUNT>
1

> <PUBCHEM_CACTVS_TAUTO_COUNT>
-1

> <PUBCHEM_COORDINATE_TYPE>
1
5
255

> <PUBCHEM_BONDANNOTATIONS>
10  16  8
10  18  8
11  18  8
11  26  8
12  13  8
12  15  8
13  18  8
13  19  8
15  26  8
16  19  8
27  29  8
27  30  8
29  32  8
30  31  8
31  33  8
32  33  8

$$$$
118607832
  -OEChem-11282412102D

 82 85  0     1  0  0  0  0  0999 V2000
    7.2962    0.3295    0.0000 O   0  0  0  0  0  0  0  0  0  0  0  0
    8.9891   -2.8540    0.0000 O   0  0  0  0  0  0  0  0  0  0  0  0
    7.6999   -4.0107    0.0000 O   0  0  0  0  0  0  0  0  0  0  0  0
    3.3357    2.1499    0.0000 O   0  0  0  0  0  0  0  0  0  0  0  0
    6.5819    3.7191    0.0000 N   0  0  3  0  0  0  0  0  0  0  0  0
    6.0536   -5.0821    0.0000 N   0  0  0  0  0  0  0  0  0  0  0  0
    8.8495    5.0821    0.0000 N   0  0  0  0  0  0  0  0  0  0  0  0
    5.3392   -0.0830    0.0000 N   0  0  0  0  0  0  0  0  0  0  0  0
    5.6964   -1.7778    0.0000 N   0  0  0  0  0  0  0  0  0  0  0  0
    4.6249    3.3067    0.0000 N   0  0  0  0  0  0  0  0  0  0  0  0
    6.9856   -0.6210    0.0000 N   0  0  0  0  0  0  0  0  0  0  0  0
    7.5604    3.9253    0.0000 C   0  0  0  0  0  0  0  0  0  0  0  0
    6.0536   -3.4726    0.0000 C   0  0  0  0  0  0  0  0  0  0  0  0
    5.1074   -3.7773    0.0000 C   0  0  0  0  0  0  0  0  0  0  0  0
    5.1074   -4.7773    0.0000 C   0  0  0  0  0  0  0  0  0  0  0  0
    6.2712    2.7686    0.0000 C   0  0  0  0  0  0  0  0  0  0  0  0
    7.8710    4.8758    0.0000 C   0  0  0  0  0  0  0  0  0  0  0  0
    6.6372   -4.2773    0.0000 C   0  0  0  0  0  0  0  0  0  0  0  0
    6.3642   -2.5221    0.0000 C   0  0  0  0  0  0  0  0  0  0  0  0
    5.2927    2.5624    0.0000 C   0  0  0  0  0  0  0  0  0  0  0  0
    5.6499    0.8676    0.0000 C   0  0  0  0  0  0  0  0  0  0  0  0
    6.9390    2.0243    0.0000 C   0  0  0  0  0  0  0  0  0  0  0  0
    6.6284    1.0738    0.0000 C   0  0  0  0  0  0  0  0  0  0  0  0
    4.2413   -3.2773    0.0000 C   0  0  0  0  0  0  0  0  0  0  0  0
    4.9820    1.6119    0.0000 C   0  0  0  0  0  0  0  0  0  0  0  0
    4.2413   -5.2773    0.0000 C   0  0  0  0  0  0  0  0  0  0  0  0
    5.9140    4.4634    0.0000 C   0  0  0  0  0  0  0  0  0  0  0  0
    7.3428   -2.3159    0.0000 C   0  0  0  0  0  0  0  0  0  0  0  0
    6.3642   -6.0326    0.0000 C   0  0  0  0  0  0  0  0  0  0  0  0
    6.0071   -0.8273    0.0000 C   0  0  0  0  0  0  0  0  0  0  0  0
    3.3753   -3.7773    0.0000 C   0  0  0  0  0  0  0  0  0  0  0  0
    3.3753   -4.7773    0.0000 C   0  0  0  0  0  0  0  0  0  0  0  0
    9.1602    6.0326    0.0000 C   0  0  0  0  0  0  0  0  0  0  0  0
    9.5174    4.3378    0.0000 C   0  0  0  0  0  0  0  0  0  0  0  0
    7.6534   -1.3654    0.0000 C   0  0  0  0  0  0  0  0  0  0  0  0
    8.0106   -3.0602    0.0000 C   0  0  0  0  0  0  0  0  0  0  0  0
    3.6464    3.1005    0.0000 C   0  0  0  0  0  0  0  0  0  0  0  0
    9.6569   -3.5982    0.0000 C   0  0  0  0  0  0  0  0  0  0  0  0
    8.2747    0.5357    0.0000 C   0  0  0  0  0  0  0  0  0  0  0  0
   10.6354   -3.3920    0.0000 C   0  0  0  0  0  0  0  0  0  0  0  0
    9.3463   -4.5488    0.0000 C   0  0  0  0  0  0  0  0  0  0  0  0
    2.9785    3.8448    0.0000 C   0  0  0  0  0  0  0  0  0  0  0  0
    2.0000    3.6385    0.0000 C   0  0  0  0  0  0  0  0  0  0  0  0
    7.5809    3.3057    0.0000 H   0  0  0  0  0  0  0  0  0  0  0  0
    8.1742    3.8380    0.0000 H   0  0  0  0  0  0  0  0  0  0  0  0
    7.8505    5.4955    0.0000 H   0  0  0  0  0  0  0  0  0  0  0  0
    7.2572    4.9632    0.0000 H   0  0  0  0  0  0  0  0  0  0  0  0
    7.2572   -4.2773    0.0000 H   0  0  0  0  0  0  0  0  0  0  0  0
    7.5457    2.1521    0.0000 H   0  0  0  0  0  0  0  0  0  0  0  0
    4.2413   -2.6573    0.0000 H   0  0  0  0  0  0  0  0  0  0  0  0
    4.3754    1.4840    0.0000 H   0  0  0  0  0  0  0  0  0  0  0  0
    6.3755    4.8775    0.0000 H   0  0  0  0  0  0  0  0  0  0  0  0
    5.5000    4.9249    0.0000 H   0  0  0  0  0  0  0  0  0  0  0  0
    5.4526    4.0493    0.0000 H   0  0  0  0  0  0  0  0  0  0  0  0
    4.2413   -5.8973    0.0000 H   0  0  0  0  0  0  0  0  0  0  0  0
    5.7749   -6.2252    0.0000 H   0  0  0  0  0  0  0  0  0  0  0  0
    6.5568   -6.6219    0.0000 H   0  0  0  0  0  0  0  0  0  0  0  0
    6.9536   -5.8400    0.0000 H   0  0  0  0  0  0  0  0  0  0  0  0
    4.7325   -0.2108    0.0000 H   0  0  0  0  0  0  0  0  0  0  0  0
    2.8384   -3.4673    0.0000 H   0  0  0  0  0  0  0  0  0  0  0  0
    2.8384   -5.0873    0.0000 H   0  0  0  0  0  0  0  0  0  0  0  0
    4.8175    3.8960    0.0000 H   0  0  0  0  0  0  0  0  0  0  0  0
    9.7495    5.8400    0.0000 H   0  0  0  0  0  0  0  0  0  0  0  0
    9.3528    6.6219    0.0000 H   0  0  0  0  0  0  0  0  0  0  0  0
    8.5709    6.2252    0.0000 H   0  0  0  0  0  0  0  0  0  0  0  0
    9.0559    3.9237    0.0000 H   0  0  0  0  0  0  0  0  0  0  0  0
    9.9314    3.8763    0.0000 H   0  0  0  0  0  0  0  0  0  0  0  0
    9.9788    4.7518    0.0000 H   0  0  0  0  0  0  0  0  0  0  0  0
    8.2601   -1.2375    0.0000 H   0  0  0  0  0  0  0  0  0  0  0  0
    9.8496   -3.0089    0.0000 H   0  0  0  0  0  0  0  0  0  0  0  0
    8.4026   -0.0710    0.0000 H   0  0  0  0  0  0  0  0  0  0  0  0
    8.8814    0.6635    0.0000 H   0  0  0  0  0  0  0  0  0  0  0  0
    8.1469    1.1424    0.0000 H   0  0  0  0  0  0  0  0  0  0  0  0
   10.7633   -3.9987    0.0000 H   0  0  0  0  0  0  0  0  0  0  0  0
   11.2421   -3.2642    0.0000 H   0  0  0  0  0  0  0  0  0  0  0  0
   10.5076   -2.7854    0.0000 H   0  0  0  0  0  0  0  0  0  0  0  0
    8.7570   -4.3562    0.0000 H   0  0  0  0  0  0  0  0  0  0  0  0
    9.1537   -5.1381    0.0000 H   0  0  0  0  0  0  0  0  0  0  0  0
    9.9356   -4.7414    0.0000 H   0  0  0  0  0  0  0  0  0  0  0  0
    3.1711    4.4341    0.0000 H   0  0  0  0  0  0  0  0  0  0  0  0
    1.5859    4.1000    0.0000 H   0  0  0  0  0  0  0  0  0  0  0  0
    1.8074    3.0492    0.0000 H   0  0  0  0  0  0  0  0  0  0  0  0
  1 23  1  0  0  0  0
  1 39  1  0  0  0  0
  2 36  1  0  0  0  0
  2 38  1  0  0  0  0
  3 36  2  0  0  0  0
  4 37  2  0  0  0  0
  5 12  1  0  0  0  0
  5 16  1  0  0  0  0
  5 27  1  0  0  0  0
  6 15  1  0  0  0  0
  6 18  1  0  0  0  0
  6 29  1  0  0  0  0
  7 17  1  0  0  0  0
  7 33  1  0  0  0  0
  7 34  1  0  0  0  0
  8 21  1  0  0  0  0
  8 30  1  0  0  0  0
  8 59  1  0  0  0  0
  9 19  2  0  0  0  0
  9 30  1  0  0  0  0
 10 20  1  0  0  0  0
 10 37  1  0  0  0  0
 10 62  1  0  0  0  0
 11 30  2  0  0  0  0
 11 35  1  0  0  0  0
 12 17  1  0  0  0  0
 12 44  1  0  0  0  0
 12 45  1  0  0  0  0
 13 14  1  0  0  0  0
 13 18  2  0  0  0  0
 13 19  1  0  0  0  0
 14 15  1  0  0  0  0
 14 24  2  0  0  0  0
 15 26  2  0  0  0  0
 16 20  1  0  0  0  0
 16 22  2  0  0  0  0
 17 46  1  0  0  0  0
 17 47  1  0  0  0  0
 18 48  1  0  0  0  0
 19 28  1  0  0  0  0
 20 25  2  0  0  0  0
 21 23  2  0  0  0  0
 21 25  1  0  0  0  0
 22 23  1  0  0  0  0
 22 49  1  0  0  0  0
 24 31  1  0  0  0  0
 24 50  1  0  0  0  0
 25 51  1  0  0  0  0
 26 32  1  0  0  0  0
 26 55  1  0  0  0  0
 27 52  1  0  0  0  0
 27 53  1  0  0  0  0
 27 54  1  0  0  0  0
 28 35  2  0  0  0  0
 28 36  1  0  0  0  0
 29 56  1  0  0  0  0
 29 57  1  0  0  0  0
 29 58  1  0  0  0  0
 31 32  2  0  0  0  0
 31 60  1  0  0  0  0
 32 61  1  0  0  0  0
 33 63  1  0  0  0  0
 33 64  1  0  0  0  0
 33 65  1  0  0  0  0
 34 66  1  0  0  0  0
 34 67  1  0  0  0  0
 34 68  1  0  0  0  0
 35 69  1  0  0  0  0
 37 42  1  0  0  0  0
 38 40  1  0  0  0  0
 38 41  1  0  0  0  0
 38 70  1  0  0  0  0
 39 71  1  0  0  0  0
 39 72  1  0  0  0  0
 39 73  1  0  0  0  0
 40 74  1  0  0  0  0
 40 75  1  0  0  0  0
 40 76  1  0  0  0  0
 41 77  1  0  0  0  0
 41 78  1  0  0  0  0
 41 79  1  0  0  0  0
 42 43  2  0  0  0  0
 42 80  1  0  0  0  0
 43 81  1  0  0  0  0
 43 82  1  0  0  0  0
M  END
> <PUBCHEM_COMPOUND_CID>
118607832

> <PUBCHEM_COMPOUND_CANONICALIZED>
1

> <PUBCHEM_CACTVS_COMPLEXITY>
935

> <PUBCHEM_CACTVS_HBOND_ACCEPTOR>
9

> <PUBCHEM_CACTVS_HBOND_DONOR>
2

> <PUBCHEM_CACTVS_ROTATABLE_BOND>
13

> <PUBCHEM_CACTVS_SUBSKEYS>
AAADcfB/uAAAAAAAAAAAAAAAAAAAAWAAAAA8YIAAAAAAAFgB/AAAHgAQAAAADBzhngY/3vfMFACoAzX3fACCiCk1IqAJ2CE/fNiObvrE+duXNahu1BvY6ee42fOOgECAAgQCECAAgQAECAQgQAAAAAAAAA==

> <PUBCHEM_IUPAC_OPENEYE_NAME>
isopropyl 2-[4-[2-(dimethylamino)ethyl-methyl-amino]-2-methoxy-5-(prop-2-enoylamino)anilino]-4-(1-methylindol-3-yl)pyrimidine-5-carboxylate

> <PUBCHEM_IUPAC_CAS_NAME>
2-[4-[2-(dimethylamino)ethyl-methylamino]-2-methoxy-5-(1-oxoprop-2-enylamino)anilino]-4-(1-methyl-3-indolyl)-5-pyrimidinecarboxylic acid propan-2-yl ester

> <PUBCHEM_IUPAC_NAME_MARKUP>
propan-2-yl 2-[4-[2-(dimethylamino)ethyl-methylamino]-2-methoxy-5-(prop-2-enoylamino)anilino]-4-(1-methylindol-3-yl)pyrimidine-5-carboxylate

> <PUBCHEM_IUPAC_NAME>
propan-2-yl 2-[4-[2-(dimethylamino)ethyl-methylamino]-2-methoxy-5-(prop-2-enoylamino)anilino]-4-(1-methylindol-3-yl)pyrimidine-5-carboxylate

> <PUBCHEM_IUPAC_SYSTEMATIC_NAME>
propan-2-yl 2-[[4-[2-(dimethylamino)ethyl-methyl-amino]-2-methoxy-5-(prop-2-enoylamino)phenyl]amino]-4-(1-methylindol-3-yl)pyrimidine-5-carboxylate

> <PUBCHEM_IUPAC_TRADITIONAL_NAME>
2-[5-acrylamido-4-[2-(dimethylamino)ethyl-methyl-amino]-2-methoxy-anilino]-4-(1-methylindol-3-yl)pyrimidine-5-carboxylic acid isopropyl ester

> <PUBCHEM_IUPAC_INCHI>
InChI=1S/C32H39N7O4/c1-9-29(40)34-24-16-25(28(42-8)17-27(24)38(6)15-14-37(4)5)35-32-33-18-22(31(41)43-20(2)3)30(36-32)23-19-39(7)26-13-11-10-12-21(23)26/h9-13,16-20H,1,14-15H2,2-8H3,(H,34,40)(H,33,35,36)

> <PUBCHEM_IUPAC_INCHIKEY>
AZSRSNUQCUDCGG-UHFFFAOYSA-N

> <PUBCHEM_XLOGP3_AA>
4.4

> <PUBCHEM_EXACT_MASS>
585.30635275

> <PUBCHEM_MOLECULAR_FORMULA>
C32H39N7O4

> <PUBCHEM_MOLECULAR_WEIGHT>
585.7

> <PUBCHEM_OPENEYE_CAN_SMILES>
CC(C)OC(=O)C1=CN=C(N=C1C2=CN(C3=CC=CC=C32)C)NC4=C(C=C(C(=C4)NC(=O)C=C)N(C)CCN(C)C)OC

> <PUBCHEM_OPENEYE_ISO_SMILES>
CC(C)OC(=O)C1=CN=C(N=C1C2=CN(C3=CC=CC=C32)C)NC4=C(C=C(C(=C4)NC(=O)C=C)N(C)CCN(C)C)OC

> <PUBCHEM_CACTVS_TPSA>
114

> <PUBCHEM_MONOISOTOPIC_WEIGHT>
585.30635275

> <PUBCHEM_TOTAL_CHARGE>
0

> <PUBCHEM_HEAVY_ATOM_COUNT>
43

> <PUBCHEM_ATOM_DEF_STEREO_COUNT>
0

> <PUBCHEM_ATOM_UDEF_STEREO_COUNT>
0

> <PUBCHEM_BOND_DEF_STEREO_COUNT>
0

> <PUBCHEM_BOND_UDEF_STEREO_COUNT>
0

> <PUBCHEM_ISOTOPIC_ATOM_COUNT>
0

> <PUBCHEM_COMPONENT_COUNT>
1

> <PUBCHEM_CACTVS_TAUTO_COUNT>
-1

> <PUBCHEM_COORDINATE_TYPE>
1
5
255

> <PUBCHEM_BONDANNOTATIONS>
11  30  8
11  35  8
13  14  8
13  18  8
14  15  8
14  24  8
15  26  8
16  20  8
16  22  8
19  28  8
20  25  8
21  23  8
21  25  8
22  23  8
24  31  8
26  32  8
28  35  8
31  32  8
6  15  8
6  18  8
9  19  8
9  30  8

$$$$
44480399
  -OEChem-11282412102D

 48 51  0     0  0  0  0  0  0999 V2000
    7.3872   -3.0212    0.0000 O   0  0  0  0  0  0  0  0  0  0  0  0
    5.4804   -0.0272    0.0000 O   0  0  0  0  0  0  0  0  0  0  0  0
    2.0000    1.0074    0.0000 O   0  0  0  0  0  0  0  0  0  0  0  0
    2.0000    3.0074    0.0000 O   0  0  0  0  0  0  0  0  0  0  0  0
   10.0927   -1.0909    0.0000 O   0  0  0  0  0  0  0  0  0  0  0  0
   10.4303   -2.7897    0.0000 N   0  0  0  0  0  0  0  0  0  0  0  0
    6.3981    1.4866    0.0000 N   0  0  0  0  0  0  0  0  0  0  0  0
    5.4920    3.0421    0.0000 N   0  0  0  0  0  0  0  0  0  0  0  0
    8.0610   -1.5571    0.0000 C   0  0  0  0  0  0  0  0  0  0  0  0
    7.1893   -2.0470    0.0000 C   0  0  0  0  0  0  0  0  0  0  0  0
    8.7903   -2.2326    0.0000 C   0  0  0  0  0  0  0  0  0  0  0  0
    8.3747   -3.1357    0.0000 C   0  0  0  0  0  0  0  0  0  0  0  0
    8.0726   -0.5572    0.0000 C   0  0  0  0  0  0  0  0  0  0  0  0
    6.3291   -1.5371    0.0000 C   0  0  0  0  0  0  0  0  0  0  0  0
    6.3406   -0.5371    0.0000 C   0  0  0  0  0  0  0  0  0  0  0  0
    7.2124   -0.0472    0.0000 C   0  0  0  0  0  0  0  0  0  0  0  0
    4.5981    1.5074    0.0000 C   0  0  0  0  0  0  0  0  0  0  0  0
    9.7711   -2.0378    0.0000 C   0  0  0  0  0  0  0  0  0  0  0  0
    8.8646   -4.0074    0.0000 C   0  0  0  0  0  0  0  0  0  0  0  0
    5.4920    0.9728    0.0000 C   0  0  0  0  0  0  0  0  0  0  0  0
    4.5981    2.5074    0.0000 C   0  0  0  0  0  0  0  0  0  0  0  0
    3.7320    1.0074    0.0000 C   0  0  0  0  0  0  0  0  0  0  0  0
    2.8660    1.5074    0.0000 C   0  0  0  0  0  0  0  0  0  0  0  0
    3.7320    3.0074    0.0000 C   0  0  0  0  0  0  0  0  0  0  0  0
    2.8660    2.5074    0.0000 C   0  0  0  0  0  0  0  0  0  0  0  0
    6.3981    2.5283    0.0000 C   0  0  0  0  0  0  0  0  0  0  0  0
   11.4111   -2.5948    0.0000 C   0  0  0  0  0  0  0  0  0  0  0  0
    2.0000    0.0074    0.0000 C   0  0  0  0  0  0  0  0  0  0  0  0
    2.0000    4.0074    0.0000 C   0  0  0  0  0  0  0  0  0  0  0  0
    5.7886   -1.8408    0.0000 H   0  0  0  0  0  0  0  0  0  0  0  0
    8.6131   -0.2534    0.0000 H   0  0  0  0  0  0  0  0  0  0  0  0
    7.2196    0.5728    0.0000 H   0  0  0  0  0  0  0  0  0  0  0  0
    8.3242   -4.3112    0.0000 H   0  0  0  0  0  0  0  0  0  0  0  0
    9.1684   -4.5479    0.0000 H   0  0  0  0  0  0  0  0  0  0  0  0
    9.4051   -3.7037    0.0000 H   0  0  0  0  0  0  0  0  0  0  0  0
    3.7320    0.3874    0.0000 H   0  0  0  0  0  0  0  0  0  0  0  0
    3.7320    3.6274    0.0000 H   0  0  0  0  0  0  0  0  0  0  0  0
   10.2309   -3.3768    0.0000 H   0  0  0  0  0  0  0  0  0  0  0  0
    6.9338    2.8403    0.0000 H   0  0  0  0  0  0  0  0  0  0  0  0
   11.5319   -3.2030    0.0000 H   0  0  0  0  0  0  0  0  0  0  0  0
   12.0192   -2.4740    0.0000 H   0  0  0  0  0  0  0  0  0  0  0  0
   11.2903   -1.9867    0.0000 H   0  0  0  0  0  0  0  0  0  0  0  0
    1.3800    0.0074    0.0000 H   0  0  0  0  0  0  0  0  0  0  0  0
    2.0000   -0.6126    0.0000 H   0  0  0  0  0  0  0  0  0  0  0  0
    2.6200    0.0074    0.0000 H   0  0  0  0  0  0  0  0  0  0  0  0
    2.6200    4.0074    0.0000 H   0  0  0  0  0  0  0  0  0  0  0  0
    2.0000    4.6274    0.0000 H   0  0  0  0  0  0  0  0  0  0  0  0
    1.3800    4.0074    0.0000 H   0  0  0  0  0  0  0  0  0  0  0  0
  1 10  1  0  0  0  0
  1 12  1  0  0  0  0
  2 15  1  0  0  0  0
  2 20  1  0  0  0  0
  3 23  1  0  0  0  0
  3 28  1  0  0  0  0
  4 25  1  0  0  0  0
  4 29  1  0  0  0  0
  5 18  2  0  0  0  0
  6 18  1  0  0  0  0
  6 27  1  0  0  0  0
  6 38  1  0  0  0  0
  7 20  2  0  0  0  0
  7 26  1  0  0  0  0
  8 21  1  0  0  0  0
  8 26  2  0  0  0  0
  9 10  2  0  0  0  0
  9 11  1  0  0  0  0
  9 13  1  0  0  0  0
 10 14  1  0  0  0  0
 11 12  2  0  0  0  0
 11 18  1  0  0  0  0
 12 19  1  0  0  0  0
 13 16  2  0  0  0  0
 13 31  1  0  0  0  0
 14 15  2  0  0  0  0
 14 30  1  0  0  0  0
 15 16  1  0  0  0  0
 16 32  1  0  0  0  0
 17 20  1  0  0  0  0
 17 21  1  0  0  0  0
 17 22  2  0  0  0  0
 19 33  1  0  0  0  0
 19 34  1  0  0  0  0
 19 35  1  0  0  0  0
 21 24  2  0  0  0  0
 22 23  1  0  0  0  0
 22 36  1  0  0  0  0
 23 25  2  0  0  0  0
 24 25  1  0  0  0  0
 24 37  1  0  0  0  0
 26 39  1  0  0  0  0
 27 40  1  0  0  0  0
 27 41  1  0  0  0  0
 27 42  1  0  0  0  0
 28 43  1  0  0  0  0
 28 44  1  0  0  0  0
 28 45  1  0  0  0  0
 29 46  1  0  0  0  0
 29 47  1  0  0  0  0
 29 48  1  0  0  0  0
M  END
> <PUBCHEM_COMPOUND_CID>
44480399

> <PUBCHEM_COMPOUND_CANONICALIZED>
1

> <PUBCHEM_CACTVS_COMPLEXITY>
579

> <PUBCHEM_CACTVS_HBOND_ACCEPTOR>
7

> <PUBCHEM_CACTVS_HBOND_DONOR>
1

> <PUBCHEM_CACTVS_ROTATABLE_BOND>
5

> <PUBCHEM_CACTVS_SUBSKEYS>
AAADceB7OAAAAAAAAAAAAAAAAAAAASAAAAA8YIAAAAAAAEix/gAAHgAQAAAADAyBngY31vbIFECoA6VzdACCiCk1IqAJ2KE+7NiNL77M/duOPWrv4h9K6af//P/OoEABCgAKQABAgAIUABSAAAAAAAAAAA==

> <PUBCHEM_IUPAC_OPENEYE_NAME>
6-(6,7-dimethoxyquinazolin-4-yl)oxy-N,2-dimethyl-benzofuran-3-carboxamide

> <PUBCHEM_IUPAC_CAS_NAME>
6-[(6,7-dimethoxy-4-quinazolinyl)oxy]-N,2-dimethyl-3-benzofurancarboxamide

> <PUBCHEM_IUPAC_NAME_MARKUP>
6-(6,7-dimethoxyquinazolin-4-yl)oxy-<I>N</I>,2-dimethyl-1-benzofuran-3-carboxamide

> <PUBCHEM_IUPAC_NAME>
6-(6,7-dimethoxyquinazolin-4-yl)oxy-N,2-dimethyl-1-benzofuran-3-carboxamide

> <PUBCHEM_IUPAC_SYSTEMATIC_NAME>
6-(6,7-dimethoxyquinazolin-4-yl)oxy-N,2-dimethyl-1-benzofuran-3-carboxamide

> <PUBCHEM_IUPAC_TRADITIONAL_NAME>
6-(6,7-dimethoxyquinazolin-4-yl)oxy-N,2-dimethyl-benzofuran-3-carboxamide

> <PUBCHEM_IUPAC_INCHI>
InChI=1S/C21H19N3O5/c1-11-19(20(25)22-2)13-6-5-12(7-16(13)28-11)29-21-14-8-17(26-3)18(27-4)9-15(14)23-10-24-21/h5-10H,1-4H3,(H,22,25)

> <PUBCHEM_IUPAC_INCHIKEY>
BALLNEJQLSTPIO-UHFFFAOYSA-N

> <PUBCHEM_XLOGP3_AA>
3.4

> <PUBCHEM_EXACT_MASS>
393.13247072

> <PUBCHEM_MOLECULAR_FORMULA>
C21H19N3O5

> <PUBCHEM_MOLECULAR_WEIGHT>
393.4

> <PUBCHEM_OPENEYE_CAN_SMILES>
CC1=C(C2=C(O1)C=C(C=C2)OC3=NC=NC4=CC(=C(C=C43)OC)OC)C(=O)NC

> <PUBCHEM_OPENEYE_ISO_SMILES>
CC1=C(C2=C(O1)C=C(C=C2)OC3=NC=NC4=CC(=C(C=C43)OC)OC)C(=O)NC

> <PUBCHEM_CACTVS_TPSA>
95.7

> <PUBCHEM_MONOISOTOPIC_WEIGHT>
393.13247072

> <PUBCHEM_TOTAL_CHARGE>
0

> <PUBCHEM_HEAVY_ATOM_COUNT>
29

> <PUBCHEM_ATOM_DEF_STEREO_COUNT>
0

> <PUBCHEM_ATOM_UDEF_STEREO_COUNT>
0

> <PUBCHEM_BOND_DEF_STEREO_COUNT>
0

> <PUBCHEM_BOND_UDEF_STEREO_COUNT>
0

> <PUBCHEM_ISOTOPIC_ATOM_COUNT>
0

> <PUBCHEM_COMPONENT_COUNT>
1

> <PUBCHEM_CACTVS_TAUTO_COUNT>
-1

> <PUBCHEM_COORDINATE_TYPE>
1
5
255

> <PUBCHEM_BONDANNOTATIONS>
1  10  8
1  12  8
10  14  8
11  12  8
13  16  8
14  15  8
15  16  8
17  20  8
17  21  8
17  22  8
21  24  8
22  23  8
23  25  8
24  25  8
7  20  8
7  26  8
8  21  8
8  26  8
9  10  8
9  11  8
9  13  8

$$$$
71554322
  -OEChem-11282412102D

 57 62  0     0  0  0  0  0  0999 V2000
   10.0160    2.4131    0.0000 S   0  0  0  0  0  0  0  0  0  0  0  0
    7.7018    3.6955    0.0000 F   0  0  0  0  0  0  0  0  0  0  0  0
    4.4091    4.7716    0.0000 F   0  0  0  0  0  0  0  0  0  0  0  0
   10.9665    2.1024    0.0000 O   0  0  0  0  0  0  0  0  0  0  0  0
    9.0654    2.7237    0.0000 O   0  0  0  0  0  0  0  0  0  0  0  0
    9.7053    1.4626    0.0000 N   0  0  0  0  0  0  0  0  0  0  0  0
    7.1270   -0.8509    0.0000 N   0  0  0  0  0  0  0  0  0  0  0  0
    7.1270   -2.4604    0.0000 N   0  0  0  0  0  0  0  0  0  0  0  0
    2.5000   -3.8581    0.0000 N   0  0  0  0  0  0  0  0  0  0  0  0
    2.0000   -2.9921    0.0000 N   0  0  0  0  0  0  0  0  0  0  0  0
   10.3266    3.3636    0.0000 C   0  0  0  0  0  0  0  0  0  0  0  0
   11.0709    4.0314    0.0000 C   0  0  0  0  0  0  0  0  0  0  0  0
   10.1204    4.3421    0.0000 C   0  0  0  0  0  0  0  0  0  0  0  0
    8.7268    1.2563    0.0000 C   0  0  0  0  0  0  0  0  0  0  0  0
    8.4161    0.3058    0.0000 C   0  0  0  0  0  0  0  0  0  0  0  0
    8.0590    2.0006    0.0000 C   0  0  0  0  0  0  0  0  0  0  0  0
    7.4376    0.0996    0.0000 C   0  0  0  0  0  0  0  0  0  0  0  0
    7.0804    1.7944    0.0000 C   0  0  0  0  0  0  0  0  0  0  0  0
    6.7698    0.8439    0.0000 C   0  0  0  0  0  0  0  0  0  0  0  0
    6.1808   -1.1556    0.0000 C   0  0  0  0  0  0  0  0  0  0  0  0
    6.4126    2.5387    0.0000 C   0  0  0  0  0  0  0  0  0  0  0  0
    6.1808   -2.1556    0.0000 C   0  0  0  0  0  0  0  0  0  0  0  0
    7.7106   -1.6556    0.0000 C   0  0  0  0  0  0  0  0  0  0  0  0
    5.3147   -0.6557    0.0000 C   0  0  0  0  0  0  0  0  0  0  0  0
    5.3147   -2.6556    0.0000 C   0  0  0  0  0  0  0  0  0  0  0  0
    4.4487   -2.1556    0.0000 C   0  0  0  0  0  0  0  0  0  0  0  0
    4.4487   -1.1556    0.0000 C   0  0  0  0  0  0  0  0  0  0  0  0
    6.7233    3.4892    0.0000 C   0  0  0  0  0  0  0  0  0  0  0  0
    5.4341    2.3325    0.0000 C   0  0  0  0  0  0  0  0  0  0  0  0
    3.5827   -2.6556    0.0000 C   0  0  0  0  0  0  0  0  0  0  0  0
    6.0554    4.2336    0.0000 C   0  0  0  0  0  0  0  0  0  0  0  0
    4.7663    3.0768    0.0000 C   0  0  0  0  0  0  0  0  0  0  0  0
    3.4782   -3.6502    0.0000 C   0  0  0  0  0  0  0  0  0  0  0  0
    2.6691   -2.2489    0.0000 C   0  0  0  0  0  0  0  0  0  0  0  0
    5.0769    4.0273    0.0000 C   0  0  0  0  0  0  0  0  0  0  0  0
    2.0933   -4.7716    0.0000 C   0  0  0  0  0  0  0  0  0  0  0  0
    9.7075    3.3971    0.0000 H   0  0  0  0  0  0  0  0  0  0  0  0
   11.5588    3.6489    0.0000 H   0  0  0  0  0  0  0  0  0  0  0  0
   11.3630    4.5784    0.0000 H   0  0  0  0  0  0  0  0  0  0  0  0
   10.2078    4.9559    0.0000 H   0  0  0  0  0  0  0  0  0  0  0  0
    9.5008    4.3215    0.0000 H   0  0  0  0  0  0  0  0  0  0  0  0
   10.1194    1.0011    0.0000 H   0  0  0  0  0  0  0  0  0  0  0  0
    8.8302   -0.1556    0.0000 H   0  0  0  0  0  0  0  0  0  0  0  0
    8.2516    2.5900    0.0000 H   0  0  0  0  0  0  0  0  0  0  0  0
    6.1631    0.7160    0.0000 H   0  0  0  0  0  0  0  0  0  0  0  0
    8.3306   -1.6556    0.0000 H   0  0  0  0  0  0  0  0  0  0  0  0
    5.3147   -0.0357    0.0000 H   0  0  0  0  0  0  0  0  0  0  0  0
    5.3147   -3.2756    0.0000 H   0  0  0  0  0  0  0  0  0  0  0  0
    3.9118   -0.8457    0.0000 H   0  0  0  0  0  0  0  0  0  0  0  0
    5.2415    1.7432    0.0000 H   0  0  0  0  0  0  0  0  0  0  0  0
    6.2480    4.8229    0.0000 H   0  0  0  0  0  0  0  0  0  0  0  0
    4.1596    2.9490    0.0000 H   0  0  0  0  0  0  0  0  0  0  0  0
    3.9389   -4.0650    0.0000 H   0  0  0  0  0  0  0  0  0  0  0  0
    2.5402   -1.6425    0.0000 H   0  0  0  0  0  0  0  0  0  0  0  0
    1.5269   -4.5194    0.0000 H   0  0  0  0  0  0  0  0  0  0  0  0
    1.8411   -5.3380    0.0000 H   0  0  0  0  0  0  0  0  0  0  0  0
    2.6597   -5.0238    0.0000 H   0  0  0  0  0  0  0  0  0  0  0  0
  1  4  2  0  0  0  0
  1  5  2  0  0  0  0
  1  6  1  0  0  0  0
  1 11  1  0  0  0  0
  2 28  1  0  0  0  0
  3 35  1  0  0  0  0
  6 14  1  0  0  0  0
  6 42  1  0  0  0  0
  7 17  1  0  0  0  0
  7 20  1  0  0  0  0
  7 23  1  0  0  0  0
  8 22  1  0  0  0  0
  8 23  2  0  0  0  0
  9 10  1  0  0  0  0
  9 33  1  0  0  0  0
  9 36  1  0  0  0  0
 10 34  2  0  0  0  0
 11 12  1  0  0  0  0
 11 13  1  0  0  0  0
 11 37  1  0  0  0  0
 12 13  1  0  0  0  0
 12 38  1  0  0  0  0
 12 39  1  0  0  0  0
 13 40  1  0  0  0  0
 13 41  1  0  0  0  0
 14 15  2  0  0  0  0
 14 16  1  0  0  0  0
 15 17  1  0  0  0  0
 15 43  1  0  0  0  0
 16 18  2  0  0  0  0
 16 44  1  0  0  0  0
 17 19  2  0  0  0  0
 18 19  1  0  0  0  0
 18 21  1  0  0  0  0
 19 45  1  0  0  0  0
 20 22  2  0  0  0  0
 20 24  1  0  0  0  0
 21 28  2  0  0  0  0
 21 29  1  0  0  0  0
 22 25  1  0  0  0  0
 23 46  1  0  0  0  0
 24 27  2  0  0  0  0
 24 47  1  0  0  0  0
 25 26  2  0  0  0  0
 25 48  1  0  0  0  0
 26 27  1  0  0  0  0
 26 30  1  0  0  0  0
 27 49  1  0  0  0  0
 28 31  1  0  0  0  0
 29 32  2  0  0  0  0
 29 50  1  0  0  0  0
 30 33  2  0  0  0  0
 30 34  1  0  0  0  0
 31 35  2  0  0  0  0
 31 51  1  0  0  0  0
 32 35  1  0  0  0  0
 32 52  1  0  0  0  0
 33 53  1  0  0  0  0
 34 54  1  0  0  0  0
 36 55  1  0  0  0  0
 36 56  1  0  0  0  0
 36 57  1  0  0  0  0
M  END
> <PUBCHEM_COMPOUND_CID>
71554322

> <PUBCHEM_COMPOUND_CANONICALIZED>
1

> <PUBCHEM_CACTVS_COMPLEXITY>
886

> <PUBCHEM_CACTVS_HBOND_ACCEPTOR>
7

> <PUBCHEM_CACTVS_HBOND_DONOR>
1

> <PUBCHEM_CACTVS_ROTATABLE_BOND>
6

> <PUBCHEM_CACTVS_SUBSKEYS>
AAADceB7sYBAAAAAAAAAAAAAGAAAAWLAAAAwYMAAAAAAAFgB/AAAHQQYQAAADAjFXgy/0LdMEAKiAzRnZHDShC0xkqAZ2CA4dJiIaOLA2dGUpAhomALIyCcQgMAOiAAAQAQAACAQAACACAAAQAAAAAAAAA==

> <PUBCHEM_IUPAC_OPENEYE_NAME>
N-[3-(2,4-difluorophenyl)-5-[5-(1-methylpyrazol-4-yl)benzimidazol-1-yl]phenyl]cyclopropanesulfonamide

> <PUBCHEM_IUPAC_CAS_NAME>
N-[3-(2,4-difluorophenyl)-5-[5-(1-methyl-4-pyrazolyl)-1-benzimidazolyl]phenyl]cyclopropanesulfonamide

> <PUBCHEM_IUPAC_NAME_MARKUP>
<I>N</I>-[3-(2,4-difluorophenyl)-5-[5-(1-methylpyrazol-4-yl)benzimidazol-1-yl]phenyl]cyclopropanesulfonamide

> <PUBCHEM_IUPAC_NAME>
N-[3-(2,4-difluorophenyl)-5-[5-(1-methylpyrazol-4-yl)benzimidazol-1-yl]phenyl]cyclopropanesulfonamide

> <PUBCHEM_IUPAC_SYSTEMATIC_NAME>
N-[3-[2,4-bis(fluoranyl)phenyl]-5-[5-(1-methylpyrazol-4-yl)benzimidazol-1-yl]phenyl]cyclopropanesulfonamide

> <PUBCHEM_IUPAC_TRADITIONAL_NAME>
N-[3-(2,4-difluorophenyl)-5-[5-(1-methylpyrazol-4-yl)benzimidazol-1-yl]phenyl]cyclopropanesulfonamide

> <PUBCHEM_IUPAC_INCHI>
InChI=1S/C26H21F2N5O2S/c1-32-14-18(13-30-32)16-2-7-26-25(10-16)29-15-33(26)21-9-17(23-6-3-19(27)11-24(23)28)8-20(12-21)31-36(34,35)22-4-5-22/h2-3,6-15,22,31H,4-5H2,1H3

> <PUBCHEM_IUPAC_INCHIKEY>
ZJFCBQXPTQSTCZ-UHFFFAOYSA-N

> <PUBCHEM_XLOGP3_AA>
4.4

> <PUBCHEM_EXACT_MASS>
505.13840243

> <PUBCHEM_MOLECULAR_FORMULA>
C26H21F2N5O2S

> <PUBCHEM_MOLECULAR_WEIGHT>
505.5

> <PUBCHEM_OPENEYE_CAN_SMILES>
CN1C=C(C=N1)C2=CC3=C(C=C2)N(C=N3)C4=CC(=CC(=C4)NS(=O)(=O)C5CC5)C6=C(C=C(C=C6)F)F

> <PUBCHEM_OPENEYE_ISO_SMILES>
CN1C=C(C=N1)C2=CC3=C(C=C2)N(C=N3)C4=CC(=CC(=C4)NS(=O)(=O)C5CC5)C6=C(C=C(C=C6)F)F

> <PUBCHEM_CACTVS_TPSA>
90.2

> <PUBCHEM_MONOISOTOPIC_WEIGHT>
505.13840243

> <PUBCHEM_TOTAL_CHARGE>
0

> <PUBCHEM_HEAVY_ATOM_COUNT>
36

> <PUBCHEM_ATOM_DEF_STEREO_COUNT>
0

> <PUBCHEM_ATOM_UDEF_STEREO_COUNT>
0

> <PUBCHEM_BOND_DEF_STEREO_COUNT>
0

> <PUBCHEM_BOND_UDEF_STEREO_COUNT>
0

> <PUBCHEM_ISOTOPIC_ATOM_COUNT>
0

> <PUBCHEM_COMPONENT_COUNT>
1

> <PUBCHEM_CACTVS_TAUTO_COUNT>
-1

> <PUBCHEM_COORDINATE_TYPE>
1
5
255

> <PUBCHEM_BONDANNOTATIONS>
10  34  8
14  15  8
14  16  8
15  17  8
16  18  8
17  19  8
18  19  8
20  22  8
20  24  8
21  28  8
21  29  8
22  25  8
24  27  8
25  26  8
26  27  8
28  31  8
29  32  8
30  33  8
30  34  8
31  35  8
32  35  8
7  20  8
7  23  8
8  22  8
8  23  8
9  10  8
9  33  8

$$$$
11554659
  -OEChem-11282412102D

 57 60  0     0  0  0  0  0  0999 V2000
    8.0379    2.2623    0.0000 S   0  0  0  0  0  0  0  0  0  0  0  0
    5.4804   -1.2675    0.0000 O   0  0  0  0  0  0  0  0  0  0  0  0
    2.0000   -2.3021    0.0000 O   0  0  0  0  0  0  0  0  0  0  0  0
    2.0000   -4.3021    0.0000 O   0  0  0  0  0  0  0  0  0  0  0  0
    8.8865    3.7722    0.0000 O   0  0  0  0  0  0  0  0  0  0  0  0
    5.4920   -4.3368    0.0000 N   0  0  0  0  0  0  0  0  0  0  0  0
    8.9212    0.7724    0.0000 N   0  0  0  0  0  0  0  0  0  0  0  0
    9.7698    2.2823    0.0000 N   0  0  0  0  0  0  0  0  0  0  0  0
    4.5981   -2.8021    0.0000 C   0  0  0  0  0  0  0  0  0  0  0  0
    4.5981   -3.8021    0.0000 C   0  0  0  0  0  0  0  0  0  0  0  0
    5.4920   -2.2675    0.0000 C   0  0  0  0  0  0  0  0  0  0  0  0
    3.7320   -2.3021    0.0000 C   0  0  0  0  0  0  0  0  0  0  0  0
    2.8660   -2.8021    0.0000 C   0  0  0  0  0  0  0  0  0  0  0  0
    3.7320   -4.3021    0.0000 C   0  0  0  0  0  0  0  0  0  0  0  0
    2.8660   -3.8021    0.0000 C   0  0  0  0  0  0  0  0  0  0  0  0
    6.3981   -2.7813    0.0000 C   0  0  0  0  0  0  0  0  0  0  0  0
    6.3406   -0.7576    0.0000 C   0  0  0  0  0  0  0  0  0  0  0  0
    6.3981   -3.8229    0.0000 C   0  0  0  0  0  0  0  0  0  0  0  0
    8.0610    0.2624    0.0000 C   0  0  0  0  0  0  0  0  0  0  0  0
    7.2124   -1.2475    0.0000 C   0  0  0  0  0  0  0  0  0  0  0  0
    6.3291    0.2424    0.0000 C   0  0  0  0  0  0  0  0  0  0  0  0
   10.6184    3.7922    0.0000 C   0  0  0  0  0  0  0  0  0  0  0  0
   11.4902    3.3023    0.0000 C   0  0  0  0  0  0  0  0  0  0  0  0
    8.0726   -0.7375    0.0000 C   0  0  0  0  0  0  0  0  0  0  0  0
    7.1893    0.7524    0.0000 C   0  0  0  0  0  0  0  0  0  0  0  0
    9.7583    3.2822    0.0000 C   0  0  0  0  0  0  0  0  0  0  0  0
   10.6069    4.7922    0.0000 C   0  0  0  0  0  0  0  0  0  0  0  0
   12.3504    3.8122    0.0000 C   0  0  0  0  0  0  0  0  0  0  0  0
   11.5018    2.3023    0.0000 C   0  0  0  0  0  0  0  0  0  0  0  0
    8.9096    1.7723    0.0000 C   0  0  0  0  0  0  0  0  0  0  0  0
   11.4671    5.3021    0.0000 C   0  0  0  0  0  0  0  0  0  0  0  0
   12.3388    4.8122    0.0000 C   0  0  0  0  0  0  0  0  0  0  0  0
    2.0000   -1.3021    0.0000 C   0  0  0  0  0  0  0  0  0  0  0  0
    2.0000   -5.3021    0.0000 C   0  0  0  0  0  0  0  0  0  0  0  0
    3.7320   -1.6821    0.0000 H   0  0  0  0  0  0  0  0  0  0  0  0
    3.7320   -4.9221    0.0000 H   0  0  0  0  0  0  0  0  0  0  0  0
    6.9338   -2.4692    0.0000 H   0  0  0  0  0  0  0  0  0  0  0  0
    6.9338   -4.1350    0.0000 H   0  0  0  0  0  0  0  0  0  0  0  0
    7.2196   -1.8675    0.0000 H   0  0  0  0  0  0  0  0  0  0  0  0
    5.7886    0.5461    0.0000 H   0  0  0  0  0  0  0  0  0  0  0  0
    8.6131   -1.0413    0.0000 H   0  0  0  0  0  0  0  0  0  0  0  0
    7.1821    1.3723    0.0000 H   0  0  0  0  0  0  0  0  0  0  0  0
    9.4617    0.4686    0.0000 H   0  0  0  0  0  0  0  0  0  0  0  0
   10.0664    5.0959    0.0000 H   0  0  0  0  0  0  0  0  0  0  0  0
   12.8909    3.5085    0.0000 H   0  0  0  0  0  0  0  0  0  0  0  0
   10.8818    2.2952    0.0000 H   0  0  0  0  0  0  0  0  0  0  0  0
   11.5089    1.6824    0.0000 H   0  0  0  0  0  0  0  0  0  0  0  0
   12.1217    2.3095    0.0000 H   0  0  0  0  0  0  0  0  0  0  0  0
   10.3103    1.9785    0.0000 H   0  0  0  0  0  0  0  0  0  0  0  0
   11.4599    5.9221    0.0000 H   0  0  0  0  0  0  0  0  0  0  0  0
   12.8721    5.1284    0.0000 H   0  0  0  0  0  0  0  0  0  0  0  0
    2.6200   -1.3021    0.0000 H   0  0  0  0  0  0  0  0  0  0  0  0
    2.0000   -0.6821    0.0000 H   0  0  0  0  0  0  0  0  0  0  0  0
    1.3800   -1.3021    0.0000 H   0  0  0  0  0  0  0  0  0  0  0  0
    1.3800   -5.3021    0.0000 H   0  0  0  0  0  0  0  0  0  0  0  0
    2.0000   -5.9221    0.0000 H   0  0  0  0  0  0  0  0  0  0  0  0
    2.6200   -5.3021    0.0000 H   0  0  0  0  0  0  0  0  0  0  0  0
  1 30  2  0  0  0  0
  2 11  1  0  0  0  0
  2 17  1  0  0  0  0
  3 13  1  0  0  0  0
  3 33  1  0  0  0  0
  4 15  1  0  0  0  0
  4 34  1  0  0  0  0
  5 26  2  0  0  0  0
  6 10  2  0  0  0  0
  6 18  1  0  0  0  0
  7 19  1  0  0  0  0
  7 30  1  0  0  0  0
  7 43  1  0  0  0  0
  8 26  1  0  0  0  0
  8 30  1  0  0  0  0
  8 49  1  0  0  0  0
  9 10  1  0  0  0  0
  9 11  2  0  0  0  0
  9 12  1  0  0  0  0
 10 14  1  0  0  0  0
 11 16  1  0  0  0  0
 12 13  2  0  0  0  0
 12 35  1  0  0  0  0
 13 15  1  0  0  0  0
 14 15  2  0  0  0  0
 14 36  1  0  0  0  0
 16 18  2  0  0  0  0
 16 37  1  0  0  0  0
 17 20  2  0  0  0  0
 17 21  1  0  0  0  0
 18 38  1  0  0  0  0
 19 24  2  0  0  0  0
 19 25  1  0  0  0  0
 20 24  1  0  0  0  0
 20 39  1  0  0  0  0
 21 25  2  0  0  0  0
 21 40  1  0  0  0  0
 22 23  1  0  0  0  0
 22 26  1  0  0  0  0
 22 27  2  0  0  0  0
 23 28  2  0  0  0  0
 23 29  1  0  0  0  0
 24 41  1  0  0  0  0
 25 42  1  0  0  0  0
 27 31  1  0  0  0  0
 27 44  1  0  0  0  0
 28 32  1  0  0  0  0
 28 45  1  0  0  0  0
 29 46  1  0  0  0  0
 29 47  1  0  0  0  0
 29 48  1  0  0  0  0
 31 32  2  0  0  0  0
 31 50  1  0  0  0  0
 32 51  1  0  0  0  0
 33 52  1  0  0  0  0
 33 53  1  0  0  0  0
 33 54  1  0  0  0  0
 34 55  1  0  0  0  0
 34 56  1  0  0  0  0
 34 57  1  0  0  0  0
M  END
> <PUBCHEM_COMPOUND_CID>
11554659

> <PUBCHEM_COMPOUND_CANONICALIZED>
1

> <PUBCHEM_CACTVS_COMPLEXITY>
687

> <PUBCHEM_CACTVS_HBOND_ACCEPTOR>
6

> <PUBCHEM_CACTVS_HBOND_DONOR>
2

> <PUBCHEM_CACTVS_ROTATABLE_BOND>
6

> <PUBCHEM_CACTVS_SUBSKEYS>
AAADceB7OABAAAAAAAAAAAAAAAAAAAAAAAA8YMEAAAAAAACx9AAAHgQQAAAADAzBngY/xvLIFACsAzV3VACCiCA1IikI2CE+7NiNJvLEtZuGOSru0RvK6af4+L+OoEABAgASQABAgAIEACSAAAAAAAAAAA==

> <PUBCHEM_IUPAC_OPENEYE_NAME>
N-[[4-[(6,7-dimethoxy-4-quinolyl)oxy]phenyl]carbamothioyl]-2-methyl-benzamide

> <PUBCHEM_IUPAC_CAS_NAME>
N-[[4-[(6,7-dimethoxy-4-quinolinyl)oxy]anilino]-sulfanylidenemethyl]-2-methylbenzamide

> <PUBCHEM_IUPAC_NAME_MARKUP>
<I>N</I>-[[4-(6,7-dimethoxyquinolin-4-yl)oxyphenyl]carbamothioyl]-2-methylbenzamide

> <PUBCHEM_IUPAC_NAME>
N-[[4-(6,7-dimethoxyquinolin-4-yl)oxyphenyl]carbamothioyl]-2-methylbenzamide

> <PUBCHEM_IUPAC_SYSTEMATIC_NAME>
N-[[4-(6,7-dimethoxyquinolin-4-yl)oxyphenyl]carbamothioyl]-2-methyl-benzamide

> <PUBCHEM_IUPAC_TRADITIONAL_NAME>
N-[[4-[(6,7-dimethoxy-4-quinolyl)oxy]phenyl]thiocarbamoyl]-2-methyl-benzamide

> <PUBCHEM_IUPAC_INCHI>
InChI=1S/C26H23N3O4S/c1-16-6-4-5-7-19(16)25(30)29-26(34)28-17-8-10-18(11-9-17)33-22-12-13-27-21-15-24(32-3)23(31-2)14-20(21)22/h4-15H,1-3H3,(H2,28,29,30,34)

> <PUBCHEM_IUPAC_INCHIKEY>
ZXGIBSBJQLLUEE-UHFFFAOYSA-N

> <PUBCHEM_XLOGP3_AA>
5.6

> <PUBCHEM_EXACT_MASS>
473.14092740

> <PUBCHEM_MOLECULAR_FORMULA>
C26H23N3O4S

> <PUBCHEM_MOLECULAR_WEIGHT>
473.5

> <PUBCHEM_OPENEYE_CAN_SMILES>
CC1=CC=CC=C1C(=O)NC(=S)NC2=CC=C(C=C2)OC3=C4C=C(C(=CC4=NC=C3)OC)OC

> <PUBCHEM_OPENEYE_ISO_SMILES>
CC1=CC=CC=C1C(=O)NC(=S)NC2=CC=C(C=C2)OC3=C4C=C(C(=CC4=NC=C3)OC)OC

> <PUBCHEM_CACTVS_TPSA>
114

> <PUBCHEM_MONOISOTOPIC_WEIGHT>
473.14092740

> <PUBCHEM_TOTAL_CHARGE>
0

> <PUBCHEM_HEAVY_ATOM_COUNT>
34

> <PUBCHEM_ATOM_DEF_STEREO_COUNT>
0

> <PUBCHEM_ATOM_UDEF_STEREO_COUNT>
0

> <PUBCHEM_BOND_DEF_STEREO_COUNT>
0

> <PUBCHEM_BOND_UDEF_STEREO_COUNT>
0

> <PUBCHEM_ISOTOPIC_ATOM_COUNT>
0

> <PUBCHEM_COMPONENT_COUNT>
1

> <PUBCHEM_CACTVS_TAUTO_COUNT>
-1

> <PUBCHEM_COORDINATE_TYPE>
1
5
255

> <PUBCHEM_BONDANNOTATIONS>
10  14  8
11  16  8
12  13  8
13  15  8
14  15  8
16  18  8
17  20  8
17  21  8
19  24  8
19  25  8
20  24  8
21  25  8
22  23  8
22  27  8
23  28  8
27  31  8
28  32  8
31  32  8
6  10  8
6  18  8
9  10  8
9  11  8
9  12  8

$$$$
9926791
  -OEChem-11282412102D

 43 45  0     1  0  0  0  0  0999 V2000
    4.5981   -0.3030    0.0000 O   0  0  0  0  0  0  0  0  0  0  0  0
    5.4641    1.1970    0.0000 N   0  0  0  0  0  0  0  0  0  0  0  0
    8.0622    0.6970    0.0000 N   0  0  3  0  0  0  0  0  0  0  0  0
    7.1962   -0.8030    0.0000 N   0  0  0  0  0  0  0  0  0  0  0  0
    9.8744   -2.1077    0.0000 N   0  0  0  0  0  0  0  0  0  0  0  0
    8.0622   -2.3030    0.0000 N   0  0  0  0  0  0  0  0  0  0  0  0
    2.0000    0.1970    0.0000 N   0  0  0  0  0  0  0  0  0  0  0  0
    7.1962    1.1970    0.0000 C   0  0  2  0  0  0  0  0  0  0  0  0
    7.1962    2.1970    0.0000 C   0  0  1  0  0  0  0  0  0  0  0  0
    6.3301    2.6970    0.0000 C   0  0  0  0  0  0  0  0  0  0  0  0
    6.3301    0.6970    0.0000 C   0  0  0  0  0  0  0  0  0  0  0  0
    5.4641    2.1970    0.0000 C   0  0  0  0  0  0  0  0  0  0  0  0
    8.0622    2.6970    0.0000 C   0  0  0  0  0  0  0  0  0  0  0  0
    8.0622   -0.3030    0.0000 C   0  0  0  0  0  0  0  0  0  0  0  0
    4.5981    0.6970    0.0000 C   0  0  0  0  0  0  0  0  0  0  0  0
    8.9282    1.1970    0.0000 C   0  0  0  0  0  0  0  0  0  0  0  0
    8.9282   -0.8030    0.0000 C   0  0  0  0  0  0  0  0  0  0  0  0
    3.7320    1.1970    0.0000 C   0  0  0  0  0  0  0  0  0  0  0  0
    8.9282   -1.8030    0.0000 C   0  0  0  0  0  0  0  0  0  0  0  0
    9.8744   -0.4982    0.0000 C   0  0  0  0  0  0  0  0  0  0  0  0
    7.1962   -1.8030    0.0000 C   0  0  0  0  0  0  0  0  0  0  0  0
   10.4580   -1.3030    0.0000 C   0  0  0  0  0  0  0  0  0  0  0  0
    2.8660    0.6970    0.0000 C   0  0  0  0  0  0  0  0  0  0  0  0
    7.7331    1.5070    0.0000 H   0  0  0  0  0  0  0  0  0  0  0  0
    7.1962    2.8170    0.0000 H   0  0  0  0  0  0  0  0  0  0  0  0
    6.7287    3.1720    0.0000 H   0  0  0  0  0  0  0  0  0  0  0  0
    5.9316    3.1720    0.0000 H   0  0  0  0  0  0  0  0  0  0  0  0
    5.9316    0.2221    0.0000 H   0  0  0  0  0  0  0  0  0  0  0  0
    6.7287    0.2221    0.0000 H   0  0  0  0  0  0  0  0  0  0  0  0
    5.2520    2.7796    0.0000 H   0  0  0  0  0  0  0  0  0  0  0  0
    4.8535    2.0894    0.0000 H   0  0  0  0  0  0  0  0  0  0  0  0
    8.3722    2.1601    0.0000 H   0  0  0  0  0  0  0  0  0  0  0  0
    8.5991    3.0070    0.0000 H   0  0  0  0  0  0  0  0  0  0  0  0
    7.7522    3.2340    0.0000 H   0  0  0  0  0  0  0  0  0  0  0  0
    9.2382    0.6601    0.0000 H   0  0  0  0  0  0  0  0  0  0  0  0
    9.4651    1.5070    0.0000 H   0  0  0  0  0  0  0  0  0  0  0  0
    8.6182    1.7340    0.0000 H   0  0  0  0  0  0  0  0  0  0  0  0
    4.1306    1.6720    0.0000 H   0  0  0  0  0  0  0  0  0  0  0  0
    3.3335    1.6720    0.0000 H   0  0  0  0  0  0  0  0  0  0  0  0
   10.0670    0.0911    0.0000 H   0  0  0  0  0  0  0  0  0  0  0  0
   10.0670   -2.6970    0.0000 H   0  0  0  0  0  0  0  0  0  0  0  0
    6.6592   -2.1130    0.0000 H   0  0  0  0  0  0  0  0  0  0  0  0
   11.0780   -1.3030    0.0000 H   0  0  0  0  0  0  0  0  0  0  0  0
  1 15  2  0  0  0  0
  2 11  1  0  0  0  0
  2 12  1  0  0  0  0
  2 15  1  0  0  0  0
  8  3  1  1  0  0  0
  3 14  1  0  0  0  0
  3 16  1  0  0  0  0
  4 14  2  0  0  0  0
  4 21  1  0  0  0  0
  5 19  1  0  0  0  0
  5 22  1  0  0  0  0
  5 41  1  0  0  0  0
  6 19  1  0  0  0  0
  6 21  2  0  0  0  0
  7 23  3  0  0  0  0
  8  9  1  0  0  0  0
  8 11  1  0  0  0  0
  8 24  1  0  0  0  0
  9 10  1  0  0  0  0
  9 13  1  1  0  0  0
  9 25  1  0  0  0  0
 10 12  1  0  0  0  0
 10 26  1  0  0  0  0
 10 27  1  0  0  0  0
 11 28  1  0  0  0  0
 11 29  1  0  0  0  0
 12 30  1  0  0  0  0
 12 31  1  0  0  0  0
 13 32  1  0  0  0  0
 13 33  1  0  0  0  0
 13 34  1  0  0  0  0
 14 17  1  0  0  0  0
 15 18  1  0  0  0  0
 16 35  1  0  0  0  0
 16 36  1  0  0  0  0
 16 37  1  0  0  0  0
 17 19  2  0  0  0  0
 17 20  1  0  0  0  0
 18 23  1  0  0  0  0
 18 38  1  0  0  0  0
 18 39  1  0  0  0  0
 20 22  2  0  0  0  0
 20 40  1  0  0  0  0
 21 42  1  0  0  0  0
 22 43  1  0  0  0  0
M  END
> <PUBCHEM_COMPOUND_CID>
9926791

> <PUBCHEM_COMPOUND_CANONICALIZED>
1

> <PUBCHEM_CACTVS_COMPLEXITY>
488

> <PUBCHEM_CACTVS_HBOND_ACCEPTOR>
5

> <PUBCHEM_CACTVS_HBOND_DONOR>
1

> <PUBCHEM_CACTVS_ROTATABLE_BOND>
3

> <PUBCHEM_CACTVS_SUBSKEYS>
AAADceB7oAAAAAAAAAAAAAAAAAAAAWAAAAAsWAAAAAAAAFgB+AAAHgAQAAAADSjBmwQ/sN/JkAC4BjN3dACCgCmxAqAJ2aE4ZJiI6MJAyMEUBAhIFgLAQCAQAAAKAAAAAAAAAAAAAAAAAAAAAAAAAAAAAA==

> <PUBCHEM_IUPAC_OPENEYE_NAME>
3-[(3R,4R)-4-methyl-3-[methyl(7H-pyrrolo[2,3-d]pyrimidin-4-yl)amino]-1-piperidyl]-3-oxo-propanenitrile

> <PUBCHEM_IUPAC_CAS_NAME>
3-[(3R,4R)-4-methyl-3-[methyl(7H-pyrrolo[2,3-d]pyrimidin-4-yl)amino]-1-piperidinyl]-3-oxopropanenitrile

> <PUBCHEM_IUPAC_NAME_MARKUP>
3-[(3<I>R</I>,4<I>R</I>)-4-methyl-3-[methyl(7<I>H</I>-pyrrolo[2,3-d]pyrimidin-4-yl)amino]piperidin-1-yl]-3-oxopropanenitrile

> <PUBCHEM_IUPAC_NAME>
3-[(3R,4R)-4-methyl-3-[methyl(7H-pyrrolo[2,3-d]pyrimidin-4-yl)amino]piperidin-1-yl]-3-oxopropanenitrile

> <PUBCHEM_IUPAC_SYSTEMATIC_NAME>
3-[(3R,4R)-4-methyl-3-[methyl(7H-pyrrolo[2,3-d]pyrimidin-4-yl)amino]piperidin-1-yl]-3-oxidanylidene-propanenitrile

> <PUBCHEM_IUPAC_TRADITIONAL_NAME>
3-keto-3-[(3R,4R)-4-methyl-3-[methyl(7H-pyrrolo[2,3-d]pyrimidin-4-yl)amino]piperidino]propionitrile

> <PUBCHEM_IUPAC_INCHI>
InChI=1S/C16H20N6O/c1-11-5-8-22(14(23)3-6-17)9-13(11)21(2)16-12-4-7-18-15(12)19-10-20-16/h4,7,10-11,13H,3,5,8-9H2,1-2H3,(H,18,19,20)/t11-,13+/m1/s1

> <PUBCHEM_IUPAC_INCHIKEY>
UJLAWZDWDVHWOW-YPMHNXCESA-N

> <PUBCHEM_XLOGP3_AA>
1.5

> <PUBCHEM_EXACT_MASS>
312.16985928

> <PUBCHEM_MOLECULAR_FORMULA>
C16H20N6O

> <PUBCHEM_MOLECULAR_WEIGHT>
312.37

> <PUBCHEM_OPENEYE_CAN_SMILES>
CC1CCN(CC1N(C)C2=NC=NC3=C2C=CN3)C(=O)CC#N

> <PUBCHEM_OPENEYE_ISO_SMILES>
C[C@@H]1CCN(C[C@@H]1N(C)C2=NC=NC3=C2C=CN3)C(=O)CC#N

> <PUBCHEM_CACTVS_TPSA>
88.9

> <PUBCHEM_MONOISOTOPIC_WEIGHT>
312.16985928

> <PUBCHEM_TOTAL_CHARGE>
0

> <PUBCHEM_HEAVY_ATOM_COUNT>
23

> <PUBCHEM_ATOM_DEF_STEREO_COUNT>
2

> <PUBCHEM_ATOM_UDEF_STEREO_COUNT>
0

> <PUBCHEM_BOND_DEF_STEREO_COUNT>
0

> <PUBCHEM_BOND_UDEF_STEREO_COUNT>
0

> <PUBCHEM_ISOTOPIC_ATOM_COUNT>
0

> <PUBCHEM_COMPONENT_COUNT>
1

> <PUBCHEM_CACTVS_TAUTO_COUNT>
-1

> <PUBCHEM_COORDINATE_TYPE>
1
5
255

> <PUBCHEM_BONDANNOTATIONS>
14  17  8
17  19  8
17  20  8
20  22  8
8  3  5
4  14  8
4  21  8
5  19  8
5  22  8
6  19  8
6  21  8
9  13  5

$$$$
16722836
  -OEChem-11282412102D

 73 76  0     0  0  0  0  0  0999 V2000
    3.8660   -1.2500    0.0000 S   0  0  0  0  0  0  0  0  0  0  0  0
   12.5263    3.7500    0.0000 O   0  0  0  0  0  0  0  0  0  0  0  0
    4.3660   -2.1160    0.0000 O   0  0  0  0  0  0  0  0  0  0  0  0
    3.3660   -0.3840    0.0000 O   0  0  0  0  0  0  0  0  0  0  0  0
   15.1244    3.2500    0.0000 N   0  0  0  0  0  0  0  0  0  0  0  0
    3.0000   -1.7500    0.0000 N   0  0  0  0  0  0  0  0  0  0  0  0
    5.5981    1.7500    0.0000 N   0  0  0  0  0  0  0  0  0  0  0  0
    9.0622    1.7500    0.0000 N   0  0  0  0  0  0  0  0  0  0  0  0
    7.3301    1.7500    0.0000 N   0  0  0  0  0  0  0  0  0  0  0  0
    8.1962    3.2500    0.0000 N   0  0  0  0  0  0  0  0  0  0  0  0
   15.2289    2.2555    0.0000 C   0  0  0  0  0  0  0  0  0  0  0  0
   16.0379    3.6567    0.0000 C   0  0  0  0  0  0  0  0  0  0  0  0
   16.2070    2.0476    0.0000 C   0  0  0  0  0  0  0  0  0  0  0  0
   16.7070    2.9136    0.0000 C   0  0  0  0  0  0  0  0  0  0  0  0
   14.2583    3.7500    0.0000 C   0  0  0  0  0  0  0  0  0  0  0  0
   13.3923    3.2500    0.0000 C   0  0  0  0  0  0  0  0  0  0  0  0
    3.0000   -2.7500    0.0000 C   0  0  0  0  0  0  0  0  0  0  0  0
    3.0000   -3.7500    0.0000 C   0  0  0  0  0  0  0  0  0  0  0  0
    2.0000   -2.7500    0.0000 C   0  0  0  0  0  0  0  0  0  0  0  0
    4.0000   -2.7500    0.0000 C   0  0  0  0  0  0  0  0  0  0  0  0
    4.7320   -0.7500    0.0000 C   0  0  0  0  0  0  0  0  0  0  0  0
   11.6603    3.2500    0.0000 C   0  0  0  0  0  0  0  0  0  0  0  0
    4.7320    0.2500    0.0000 C   0  0  0  0  0  0  0  0  0  0  0  0
    5.5981   -1.2500    0.0000 C   0  0  0  0  0  0  0  0  0  0  0  0
    5.5981    0.7500    0.0000 C   0  0  0  0  0  0  0  0  0  0  0  0
   10.7942    3.7500    0.0000 C   0  0  0  0  0  0  0  0  0  0  0  0
   11.6603    2.2500    0.0000 C   0  0  0  0  0  0  0  0  0  0  0  0
    6.4641   -0.7500    0.0000 C   0  0  0  0  0  0  0  0  0  0  0  0
    6.4641    0.2500    0.0000 C   0  0  0  0  0  0  0  0  0  0  0  0
    9.9282    2.2500    0.0000 C   0  0  0  0  0  0  0  0  0  0  0  0
    9.9282    3.2500    0.0000 C   0  0  0  0  0  0  0  0  0  0  0  0
   10.7942    1.7500    0.0000 C   0  0  0  0  0  0  0  0  0  0  0  0
    6.4641    2.2500    0.0000 C   0  0  0  0  0  0  0  0  0  0  0  0
    6.4641    3.2500    0.0000 C   0  0  0  0  0  0  0  0  0  0  0  0
    8.1962    2.2500    0.0000 C   0  0  0  0  0  0  0  0  0  0  0  0
    7.3301    3.7500    0.0000 C   0  0  0  0  0  0  0  0  0  0  0  0
    5.5981    3.7500    0.0000 C   0  0  0  0  0  0  0  0  0  0  0  0
   14.6089    2.2555    0.0000 H   0  0  0  0  0  0  0  0  0  0  0  0
   15.1641    1.6389    0.0000 H   0  0  0  0  0  0  0  0  0  0  0  0
   16.5395    4.0212    0.0000 H   0  0  0  0  0  0  0  0  0  0  0  0
   15.7279    4.1937    0.0000 H   0  0  0  0  0  0  0  0  0  0  0  0
   16.0154    1.4579    0.0000 H   0  0  0  0  0  0  0  0  0  0  0  0
   16.7734    1.7954    0.0000 H   0  0  0  0  0  0  0  0  0  0  0  0
   17.2086    2.5492    0.0000 H   0  0  0  0  0  0  0  0  0  0  0  0
   17.1219    3.3743    0.0000 H   0  0  0  0  0  0  0  0  0  0  0  0
   14.6569    4.2250    0.0000 H   0  0  0  0  0  0  0  0  0  0  0  0
   13.8598    4.2250    0.0000 H   0  0  0  0  0  0  0  0  0  0  0  0
   12.9938    2.7750    0.0000 H   0  0  0  0  0  0  0  0  0  0  0  0
   13.7908    2.7750    0.0000 H   0  0  0  0  0  0  0  0  0  0  0  0
    2.4631   -1.4400    0.0000 H   0  0  0  0  0  0  0  0  0  0  0  0
    2.3800   -3.7500    0.0000 H   0  0  0  0  0  0  0  0  0  0  0  0
    3.0000   -4.3700    0.0000 H   0  0  0  0  0  0  0  0  0  0  0  0
    3.6200   -3.7500    0.0000 H   0  0  0  0  0  0  0  0  0  0  0  0
    2.0000   -2.1300    0.0000 H   0  0  0  0  0  0  0  0  0  0  0  0
    1.3800   -2.7500    0.0000 H   0  0  0  0  0  0  0  0  0  0  0  0
    2.0000   -3.3700    0.0000 H   0  0  0  0  0  0  0  0  0  0  0  0
    4.0000   -3.3700    0.0000 H   0  0  0  0  0  0  0  0  0  0  0  0
    4.6200   -2.7500    0.0000 H   0  0  0  0  0  0  0  0  0  0  0  0
    4.0000   -2.1300    0.0000 H   0  0  0  0  0  0  0  0  0  0  0  0
    4.1951    0.5600    0.0000 H   0  0  0  0  0  0  0  0  0  0  0  0
    5.5981   -1.8700    0.0000 H   0  0  0  0  0  0  0  0  0  0  0  0
   10.7942    4.3700    0.0000 H   0  0  0  0  0  0  0  0  0  0  0  0
   12.1972    1.9400    0.0000 H   0  0  0  0  0  0  0  0  0  0  0  0
    7.0010   -1.0600    0.0000 H   0  0  0  0  0  0  0  0  0  0  0  0
    7.0010    0.5600    0.0000 H   0  0  0  0  0  0  0  0  0  0  0  0
    9.3913    3.5600    0.0000 H   0  0  0  0  0  0  0  0  0  0  0  0
   10.7942    1.1300    0.0000 H   0  0  0  0  0  0  0  0  0  0  0  0
    5.0611    2.0600    0.0000 H   0  0  0  0  0  0  0  0  0  0  0  0
    9.0622    1.1300    0.0000 H   0  0  0  0  0  0  0  0  0  0  0  0
    7.3301    4.3700    0.0000 H   0  0  0  0  0  0  0  0  0  0  0  0
    5.9081    4.2869    0.0000 H   0  0  0  0  0  0  0  0  0  0  0  0
    5.0611    4.0600    0.0000 H   0  0  0  0  0  0  0  0  0  0  0  0
    5.2881    3.2131    0.0000 H   0  0  0  0  0  0  0  0  0  0  0  0
  1  3  2  0  0  0  0
  1  4  2  0  0  0  0
  1  6  1  0  0  0  0
  1 21  1  0  0  0  0
  2 16  1  0  0  0  0
  2 22  1  0  0  0  0
  5 11  1  0  0  0  0
  5 12  1  0  0  0  0
  5 15  1  0  0  0  0
  6 17  1  0  0  0  0
  6 50  1  0  0  0  0
  7 25  1  0  0  0  0
  7 33  1  0  0  0  0
  7 68  1  0  0  0  0
  8 30  1  0  0  0  0
  8 35  1  0  0  0  0
  8 69  1  0  0  0  0
  9 33  2  0  0  0  0
  9 35  1  0  0  0  0
 10 35  2  0  0  0  0
 10 36  1  0  0  0  0
 11 13  1  0  0  0  0
 11 38  1  0  0  0  0
 11 39  1  0  0  0  0
 12 14  1  0  0  0  0
 12 40  1  0  0  0  0
 12 41  1  0  0  0  0
 13 14  1  0  0  0  0
 13 42  1  0  0  0  0
 13 43  1  0  0  0  0
 14 44  1  0  0  0  0
 14 45  1  0  0  0  0
 15 16  1  0  0  0  0
 15 46  1  0  0  0  0
 15 47  1  0  0  0  0
 16 48  1  0  0  0  0
 16 49  1  0  0  0  0
 17 18  1  0  0  0  0
 17 19  1  0  0  0  0
 17 20  1  0  0  0  0
 18 51  1  0  0  0  0
 18 52  1  0  0  0  0
 18 53  1  0  0  0  0
 19 54  1  0  0  0  0
 19 55  1  0  0  0  0
 19 56  1  0  0  0  0
 20 57  1  0  0  0  0
 20 58  1  0  0  0  0
 20 59  1  0  0  0  0
 21 23  1  0  0  0  0
 21 24  2  0  0  0  0
 22 26  2  0  0  0  0
 22 27  1  0  0  0  0
 23 25  2  0  0  0  0
 23 60  1  0  0  0  0
 24 28  1  0  0  0  0
 24 61  1  0  0  0  0
 25 29  1  0  0  0  0
 26 31  1  0  0  0  0
 26 62  1  0  0  0  0
 27 32  2  0  0  0  0
 27 63  1  0  0  0  0
 28 29  2  0  0  0  0
 28 64  1  0  0  0  0
 29 65  1  0  0  0  0
 30 31  2  0  0  0  0
 30 32  1  0  0  0  0
 31 66  1  0  0  0  0
 32 67  1  0  0  0  0
 33 34  1  0  0  0  0
 34 36  2  0  0  0  0
 34 37  1  0  0  0  0
 36 70  1  0  0  0  0
 37 71  1  0  0  0  0
 37 72  1  0  0  0  0
 37 73  1  0  0  0  0
M  END
> <PUBCHEM_COMPOUND_CID>
16722836

> <PUBCHEM_COMPOUND_CANONICALIZED>
1

> <PUBCHEM_CACTVS_COMPLEXITY>
787

> <PUBCHEM_CACTVS_HBOND_ACCEPTOR>
9

> <PUBCHEM_CACTVS_HBOND_DONOR>
3

> <PUBCHEM_CACTVS_ROTATABLE_BOND>
11

> <PUBCHEM_CACTVS_SUBSKEYS>
AAADcfB7sABAAAAAAAAAAAAAAAAAAWAAAAA8YIAAAAAAAAAB0AAAHgQQQAAADIzh2gY/95fIFAKgAjZnZHDCiDkxIqAJ2DgubJiOLuLE+duHPCzs0BPY6CewQAAAAEAAACAAAAAAgAAAQAAAAAAAAAAAAA==

> <PUBCHEM_IUPAC_OPENEYE_NAME>
N-tert-butyl-3-[[5-methyl-2-[4-(2-pyrrolidin-1-ylethoxy)anilino]pyrimidin-4-yl]amino]benzenesulfonamide

> <PUBCHEM_IUPAC_CAS_NAME>
N-tert-butyl-3-[[5-methyl-2-[4-[2-(1-pyrrolidinyl)ethoxy]anilino]-4-pyrimidinyl]amino]benzenesulfonamide

> <PUBCHEM_IUPAC_NAME_MARKUP>
<I>N</I>-<I>tert</I>-butyl-3-[[5-methyl-2-[4-(2-pyrrolidin-1-ylethoxy)anilino]pyrimidin-4-yl]amino]benzenesulfonamide

> <PUBCHEM_IUPAC_NAME>
N-tert-butyl-3-[[5-methyl-2-[4-(2-pyrrolidin-1-ylethoxy)anilino]pyrimidin-4-yl]amino]benzenesulfonamide

> <PUBCHEM_IUPAC_SYSTEMATIC_NAME>
N-tert-butyl-3-[[5-methyl-2-[[4-(2-pyrrolidin-1-ylethoxy)phenyl]amino]pyrimidin-4-yl]amino]benzenesulfonamide

> <PUBCHEM_IUPAC_TRADITIONAL_NAME>
N-tert-butyl-3-[[5-methyl-2-[4-(2-pyrrolidinoethoxy)anilino]pyrimidin-4-yl]amino]benzenesulfonamide

> <PUBCHEM_IUPAC_INCHI>
InChI=1S/C27H36N6O3S/c1-20-19-28-26(30-21-10-12-23(13-11-21)36-17-16-33-14-5-6-15-33)31-25(20)29-22-8-7-9-24(18-22)37(34,35)32-27(2,3)4/h7-13,18-19,32H,5-6,14-17H2,1-4H3,(H2,28,29,30,31)

> <PUBCHEM_IUPAC_INCHIKEY>
JOOXLOJCABQBSG-UHFFFAOYSA-N

> <PUBCHEM_XLOGP3_AA>
4.8

> <PUBCHEM_EXACT_MASS>
524.25696021

> <PUBCHEM_MOLECULAR_FORMULA>
C27H36N6O3S

> <PUBCHEM_MOLECULAR_WEIGHT>
524.7

> <PUBCHEM_OPENEYE_CAN_SMILES>
CC1=CN=C(N=C1NC2=CC(=CC=C2)S(=O)(=O)NC(C)(C)C)NC3=CC=C(C=C3)OCCN4CCCC4

> <PUBCHEM_OPENEYE_ISO_SMILES>
CC1=CN=C(N=C1NC2=CC(=CC=C2)S(=O)(=O)NC(C)(C)C)NC3=CC=C(C=C3)OCCN4CCCC4

> <PUBCHEM_CACTVS_TPSA>
117

> <PUBCHEM_MONOISOTOPIC_WEIGHT>
524.25696021

> <PUBCHEM_TOTAL_CHARGE>
0

> <PUBCHEM_HEAVY_ATOM_COUNT>
37

> <PUBCHEM_ATOM_DEF_STEREO_COUNT>
0

> <PUBCHEM_ATOM_UDEF_STEREO_COUNT>
0

> <PUBCHEM_BOND_DEF_STEREO_COUNT>
0

> <PUBCHEM_BOND_UDEF_STEREO_COUNT>
0

> <PUBCHEM_ISOTOPIC_ATOM_COUNT>
0

> <PUBCHEM_COMPONENT_COUNT>
1

> <PUBCHEM_CACTVS_TAUTO_COUNT>
-1

> <PUBCHEM_COORDINATE_TYPE>
1
5
255

> <PUBCHEM_BONDANNOTATIONS>
10  35  8
10  36  8
21  23  8
21  24  8
22  26  8
22  27  8
23  25  8
24  28  8
25  29  8
26  31  8
27  32  8
28  29  8
30  31  8
30  32  8
33  34  8
34  36  8
9  33  8
9  35  8

$$$$
46216796
  -OEChem-11282412102D

 67 71  0     0  0  0  0  0  0999 V2000
    5.6595    0.6190    0.0000 O   0  0  0  0  0  0  0  0  0  0  0  0
    4.9226    1.4535    0.0000 O   0  0  0  0  0  0  0  0  0  0  0  0
    7.5207   -1.0465    0.0000 O   0  0  0  0  0  0  0  0  0  0  0  0
    3.3787   -0.7219    0.0000 N   0  0  0  0  0  0  0  0  0  0  0  0
    9.2528    1.9535    0.0000 N   0  0  0  0  0  0  0  0  0  0  0  0
   10.1188    0.4535    0.0000 N   0  0  0  0  0  0  0  0  0  0  0  0
   10.9848    1.9535    0.0000 N   0  0  0  0  0  0  0  0  0  0  0  0
    2.3817   -0.6445    0.0000 C   0  0  0  0  0  0  0  0  0  0  0  0
    3.6132   -1.6941    0.0000 C   0  0  0  0  0  0  0  0  0  0  0  0
    2.0000   -1.5688    0.0000 C   0  0  0  0  0  0  0  0  0  0  0  0
    2.7611   -2.2174    0.0000 C   0  0  0  0  0  0  0  0  0  0  0  0
    4.0274    0.0392    0.0000 C   0  0  0  0  0  0  0  0  0  0  0  0
    5.0108   -0.1421    0.0000 C   0  0  0  0  0  0  0  0  0  0  0  0
    6.6430    0.4378    0.0000 C   0  0  0  0  0  0  0  0  0  0  0  0
    6.6547    1.4535    0.0000 C   0  0  0  0  0  0  0  0  0  0  0  0
    7.5207   -0.0735    0.0000 C   0  0  0  0  0  0  0  0  0  0  0  0
    7.5207    1.9535    0.0000 C   0  0  0  0  0  0  0  0  0  0  0  0
    5.7887    1.9535    0.0000 C   0  0  0  0  0  0  0  0  0  0  0  0
    8.3867    1.4535    0.0000 C   0  0  0  0  0  0  0  0  0  0  0  0
    8.3985    0.4378    0.0000 C   0  0  0  0  0  0  0  0  0  0  0  0
    4.9226    0.4535    0.0000 C   0  0  0  0  0  0  0  0  0  0  0  0
   10.1188    1.4535    0.0000 C   0  0  0  0  0  0  0  0  0  0  0  0
   10.9848   -1.0465    0.0000 C   0  0  0  0  0  0  0  0  0  0  0  0
    9.2528   -1.0465    0.0000 C   0  0  0  0  0  0  0  0  0  0  0  0
   10.9848   -0.0465    0.0000 C   0  0  0  0  0  0  0  0  0  0  0  0
   10.1188   -1.5465    0.0000 C   0  0  0  0  0  0  0  0  0  0  0  0
    8.3867   -1.5465    0.0000 C   0  0  0  0  0  0  0  0  0  0  0  0
   10.9966   -2.0622    0.0000 C   0  0  0  0  0  0  0  0  0  0  0  0
    5.7887   -0.0465    0.0000 C   0  0  0  0  0  0  0  0  0  0  0  0
    9.2410   -2.0622    0.0000 C   0  0  0  0  0  0  0  0  0  0  0  0
   11.8508    0.4535    0.0000 C   0  0  0  0  0  0  0  0  0  0  0  0
   10.1188   -2.5735    0.0000 C   0  0  0  0  0  0  0  0  0  0  0  0
    6.6547   -1.5465    0.0000 C   0  0  0  0  0  0  0  0  0  0  0  0
    5.7887   -1.0465    0.0000 C   0  0  0  0  0  0  0  0  0  0  0  0
   11.8508    1.4535    0.0000 C   0  0  0  0  0  0  0  0  0  0  0  0
    2.4941   -0.0347    0.0000 H   0  0  0  0  0  0  0  0  0  0  0  0
    1.7871   -0.4690    0.0000 H   0  0  0  0  0  0  0  0  0  0  0  0
    3.8807   -2.2534    0.0000 H   0  0  0  0  0  0  0  0  0  0  0  0
    4.1974   -1.4865    0.0000 H   0  0  0  0  0  0  0  0  0  0  0  0
    1.4548   -1.2735    0.0000 H   0  0  0  0  0  0  0  0  0  0  0  0
    1.6494   -2.0801    0.0000 H   0  0  0  0  0  0  0  0  0  0  0  0
    2.3118   -2.6447    0.0000 H   0  0  0  0  0  0  0  0  0  0  0  0
    3.1390   -2.7089    0.0000 H   0  0  0  0  0  0  0  0  0  0  0  0
    4.2439    0.6201    0.0000 H   0  0  0  0  0  0  0  0  0  0  0  0
    3.4929    0.3533    0.0000 H   0  0  0  0  0  0  0  0  0  0  0  0
    4.7943   -0.7231    0.0000 H   0  0  0  0  0  0  0  0  0  0  0  0
    5.5454   -0.4562    0.0000 H   0  0  0  0  0  0  0  0  0  0  0  0
    7.5207   -0.6935    0.0000 H   0  0  0  0  0  0  0  0  0  0  0  0
    7.5207    2.5735    0.0000 H   0  0  0  0  0  0  0  0  0  0  0  0
    6.1872    2.4285    0.0000 H   0  0  0  0  0  0  0  0  0  0  0  0
    5.3901    2.4285    0.0000 H   0  0  0  0  0  0  0  0  0  0  0  0
    8.9378    0.1319    0.0000 H   0  0  0  0  0  0  0  0  0  0  0  0
    9.2528    2.5735    0.0000 H   0  0  0  0  0  0  0  0  0  0  0  0
    4.3121    0.5612    0.0000 H   0  0  0  0  0  0  0  0  0  0  0  0
    4.7106   -0.1291    0.0000 H   0  0  0  0  0  0  0  0  0  0  0  0
   10.1188   -2.1665    0.0000 H   0  0  0  0  0  0  0  0  0  0  0  0
    7.9882   -2.0214    0.0000 H   0  0  0  0  0  0  0  0  0  0  0  0
    8.7853   -2.0214    0.0000 H   0  0  0  0  0  0  0  0  0  0  0  0
   11.5359   -2.3681    0.0000 H   0  0  0  0  0  0  0  0  0  0  0  0
    8.7017   -2.3681    0.0000 H   0  0  0  0  0  0  0  0  0  0  0  0
    6.3992   -0.1541    0.0000 H   0  0  0  0  0  0  0  0  0  0  0  0
   10.1188   -3.1935    0.0000 H   0  0  0  0  0  0  0  0  0  0  0  0
   12.3878    0.1435    0.0000 H   0  0  0  0  0  0  0  0  0  0  0  0
    6.2562   -2.0214    0.0000 H   0  0  0  0  0  0  0  0  0  0  0  0
    7.0532   -2.0214    0.0000 H   0  0  0  0  0  0  0  0  0  0  0  0
    5.2517   -1.3565    0.0000 H   0  0  0  0  0  0  0  0  0  0  0  0
   12.3878    1.7635    0.0000 H   0  0  0  0  0  0  0  0  0  0  0  0
  1 13  1  0  0  0  0
  1 14  1  0  0  0  0
  2 18  1  0  0  0  0
  2 21  1  0  0  0  0
  3 27  1  0  0  0  0
  3 33  1  0  0  0  0
  4  8  1  0  0  0  0
  4  9  1  0  0  0  0
  4 12  1  0  0  0  0
  5 19  1  0  0  0  0
  5 22  1  0  0  0  0
  5 53  1  0  0  0  0
  6 22  1  0  0  0  0
  6 25  2  0  0  0  0
  7 22  2  0  0  0  0
  7 35  1  0  0  0  0
  8 10  1  0  0  0  0
  8 36  1  0  0  0  0
  8 37  1  0  0  0  0
  9 11  1  0  0  0  0
  9 38  1  0  0  0  0
  9 39  1  0  0  0  0
 10 11  1  0  0  0  0
 10 40  1  0  0  0  0
 10 41  1  0  0  0  0
 11 42  1  0  0  0  0
 11 43  1  0  0  0  0
 12 13  1  0  0  0  0
 12 44  1  0  0  0  0
 12 45  1  0  0  0  0
 13 46  1  0  0  0  0
 13 47  1  0  0  0  0
 14 15  2  0  0  0  0
 14 16  1  0  0  0  0
 15 17  1  0  0  0  0
 15 18  1  0  0  0  0
 16 20  2  0  0  0  0
 16 48  1  0  0  0  0
 17 19  2  0  0  0  0
 17 49  1  0  0  0  0
 18 50  1  0  0  0  0
 18 51  1  0  0  0  0
 19 20  1  0  0  0  0
 20 52  1  0  0  0  0
 21 29  1  0  0  0  0
 21 54  1  0  0  0  0
 21 55  1  0  0  0  0
 23 25  1  0  0  0  0
 23 26  1  0  0  0  0
 23 28  2  0  0  0  0
 24 26  2  0  0  0  0
 24 27  1  0  0  0  0
 24 30  1  0  0  0  0
 25 31  1  0  0  0  0
 26 56  1  0  0  0  0
 27 57  1  0  0  0  0
 27 58  1  0  0  0  0
 28 32  1  0  0  0  0
 28 59  1  0  0  0  0
 29 34  2  0  0  0  0
 29 61  1  0  0  0  0
 30 32  2  0  0  0  0
 30 60  1  0  0  0  0
 31 35  2  0  0  0  0
 31 63  1  0  0  0  0
 32 62  1  0  0  0  0
 33 34  1  0  0  0  0
 33 64  1  0  0  0  0
 33 65  1  0  0  0  0
 34 66  1  0  0  0  0
 35 67  1  0  0  0  0
M  END
> <PUBCHEM_COMPOUND_CID>
46216796

> <PUBCHEM_COMPOUND_CANONICALIZED>
1

> <PUBCHEM_CACTVS_COMPLEXITY>
644

> <PUBCHEM_CACTVS_HBOND_ACCEPTOR>
7

> <PUBCHEM_CACTVS_HBOND_DONOR>
1

> <PUBCHEM_CACTVS_ROTATABLE_BOND>
4

> <PUBCHEM_CACTVS_SUBSKEYS>
AAADcfB7sAAAAAAAAAAAAAAAAAAAAWAAAAA8YIAAAAAAAAAB0AAAHgAQAAAADAzhngY91pfIFACgAzRnZACCiCkxIqAJ2CA+bJiOL6LE+duHPCjt0BPY6Cew0OMOAEACQAAIAAAAgASAABAAAAAAAAAAAA==

> <PUBCHEM_IUPAC_OPENEYE_NAME>
(16E)-11-(2-pyrrolidin-1-ylethoxy)-14,19-dioxa-5,7,27-triazatetracyclo[19.3.1.12,6.18,12]heptacosa-1(24),2(27),3,5,8(26),9,11,16,21(25),22-decaene

> <PUBCHEM_IUPAC_CAS_NAME>
(16E)-11-[2-(1-pyrrolidinyl)ethoxy]-14,19-dioxa-5,7,27-triazatetracyclo[19.3.1.12,6.18,12]heptacosa-1(24),2(27),3,5,8(26),9,11,16,21(25),22-decaene

> <PUBCHEM_IUPAC_NAME_MARKUP>
(16<I>E</I>)-11-(2-pyrrolidin-1-ylethoxy)-14,19-dioxa-5,7,27-triazatetracyclo[19.3.1.1<SUP>2,6</SUP>.1<SUP>8,12</SUP>]heptacosa-1(24),2(27),3,5,8(26),9,11,16,21(25),22-decaene

> <PUBCHEM_IUPAC_NAME>
(16E)-11-(2-pyrrolidin-1-ylethoxy)-14,19-dioxa-5,7,27-triazatetracyclo[19.3.1.12,6.18,12]heptacosa-1(24),2(27),3,5,8(26),9,11,16,21(25),22-decaene

> <PUBCHEM_IUPAC_SYSTEMATIC_NAME>
(16E)-11-(2-pyrrolidin-1-ylethoxy)-14,19-dioxa-5,7,27-triazatetracyclo[19.3.1.12,6.18,12]heptacosa-1(24),2(27),3,5,8(26),9,11,16,21(25),22-decaene

> <PUBCHEM_IUPAC_TRADITIONAL_NAME>
(16E)-11-(2-pyrrolidinoethoxy)-14,19-dioxa-5,7,27-triazatetracyclo[19.3.1.12,6.18,12]heptacosa-1(24),2(27),3,5,8(26),9,11,16,21(25),22-decaene

> <PUBCHEM_IUPAC_INCHI>
InChI=1S/C28H32N4O3/c1-2-13-32(12-1)14-17-35-27-9-8-25-19-24(27)21-34-16-4-3-15-33-20-22-6-5-7-23(18-22)26-10-11-29-28(30-25)31-26/h3-11,18-19H,1-2,12-17,20-21H2,(H,29,30,31)/b4-3+

> <PUBCHEM_IUPAC_INCHIKEY>
HWXVIOGONBBTBY-ONEGZZNKSA-N

> <PUBCHEM_XLOGP3_AA>
3.8

> <PUBCHEM_EXACT_MASS>
472.24744090

> <PUBCHEM_MOLECULAR_FORMULA>
C28H32N4O3

> <PUBCHEM_MOLECULAR_WEIGHT>
472.6

> <PUBCHEM_OPENEYE_CAN_SMILES>
C1CCN(C1)CCOC2=C3COCC=CCOCC4=CC(=CC=C4)C5=NC(=NC=C5)NC(=C3)C=C2

> <PUBCHEM_OPENEYE_ISO_SMILES>
C1CCN(C1)CCOC2=C3COC/C=C/COCC4=CC(=CC=C4)C5=NC(=NC=C5)NC(=C3)C=C2

> <PUBCHEM_CACTVS_TPSA>
68.7

> <PUBCHEM_MONOISOTOPIC_WEIGHT>
472.24744090

> <PUBCHEM_TOTAL_CHARGE>
0

> <PUBCHEM_HEAVY_ATOM_COUNT>
35

> <PUBCHEM_ATOM_DEF_STEREO_COUNT>
0

> <PUBCHEM_ATOM_UDEF_STEREO_COUNT>
0

> <PUBCHEM_BOND_DEF_STEREO_COUNT>
1

> <PUBCHEM_BOND_UDEF_STEREO_COUNT>
0

> <PUBCHEM_ISOTOPIC_ATOM_COUNT>
0

> <PUBCHEM_COMPONENT_COUNT>
1

> <PUBCHEM_CACTVS_TAUTO_COUNT>
-1

> <PUBCHEM_COORDINATE_TYPE>
1
5
255

> <PUBCHEM_BONDANNOTATIONS>
14  15  8
14  16  8
15  17  8
16  20  8
17  19  8
19  20  8
23  26  8
23  28  8
24  26  8
24  30  8
25  31  8
28  32  8
30  32  8
31  35  8
6  22  8
6  25  8
7  22  8
7  35  8

$$$$
45139106
  -OEChem-11282412102D

 62 64  0     0  0  0  0  0  0999 V2000
   11.8775    5.1452    0.0000 S   0  0  0  0  0  0  0  0  0  0  0  0
    4.8671    4.1200    0.0000 O   0  0  0  0  0  0  0  0  0  0  0  0
   12.7435    5.6452    0.0000 O   0  0  0  0  0  0  0  0  0  0  0  0
   11.3775    6.0113    0.0000 O   0  0  0  0  0  0  0  0  0  0  0  0
   12.3775    4.2792    0.0000 O   0  0  0  0  0  0  0  0  0  0  0  0
    4.6970    7.5020    0.0000 N   0  0  0  0  0  0  0  0  0  0  0  0
    6.5991    4.1200    0.0000 N   0  0  0  0  0  0  0  0  0  0  0  0
    4.0010    2.6200    0.0000 N   0  0  0  0  0  0  0  0  0  0  0  0
    4.8671    1.1200    0.0000 N   0  0  0  0  0  0  0  0  0  0  0  0
    0.5369    3.6200    0.0000 N   0  0  0  0  0  0  0  0  0  0  0  0
    6.5991    8.1200    0.0000 C   0  0  0  0  0  0  0  0  0  0  0  0
    7.5991    8.1200    0.0000 C   0  0  0  0  0  0  0  0  0  0  0  0
    6.2901    9.0711    0.0000 C   0  0  0  0  0  0  0  0  0  0  0  0
    7.9081    9.0711    0.0000 C   0  0  0  0  0  0  0  0  0  0  0  0
    7.0991    9.6588    0.0000 C   0  0  0  0  0  0  0  0  0  0  0  0
    6.5991    7.1200    0.0000 C   0  0  0  0  0  0  0  0  0  0  0  0
    5.6481    7.8110    0.0000 C   0  0  0  0  0  0  0  0  0  0  0  0
    7.4651    6.6200    0.0000 C   0  0  0  0  0  0  0  0  0  0  0  0
    5.7331    6.6200    0.0000 C   0  0  0  0  0  0  0  0  0  0  0  0
    7.4651    5.6200    0.0000 C   0  0  0  0  0  0  0  0  0  0  0  0
    5.7331    5.6200    0.0000 C   0  0  0  0  0  0  0  0  0  0  0  0
    6.5991    5.1200    0.0000 C   0  0  0  0  0  0  0  0  0  0  0  0
    5.7331    3.6200    0.0000 C   0  0  0  0  0  0  0  0  0  0  0  0
    5.7331    2.6200    0.0000 C   0  0  0  0  0  0  0  0  0  0  0  0
    4.8671    2.1200    0.0000 C   0  0  0  0  0  0  0  0  0  0  0  0
    6.5991    2.1200    0.0000 C   0  0  0  0  0  0  0  0  0  0  0  0
    3.1350    2.1200    0.0000 C   0  0  0  0  0  0  0  0  0  0  0  0
    6.5991    1.1200    0.0000 C   0  0  0  0  0  0  0  0  0  0  0  0
    2.2690    2.6200    0.0000 C   0  0  0  0  0  0  0  0  0  0  0  0
    5.7331    0.6200    0.0000 C   0  0  0  0  0  0  0  0  0  0  0  0
    2.2690    3.6200    0.0000 C   0  0  0  0  0  0  0  0  0  0  0  0
    1.4030    2.1200    0.0000 C   0  0  0  0  0  0  0  0  0  0  0  0
    1.4030    4.1200    0.0000 C   0  0  0  0  0  0  0  0  0  0  0  0
    0.5369    2.6200    0.0000 C   0  0  0  0  0  0  0  0  0  0  0  0
   11.0115    4.6452    0.0000 C   0  0  0  0  0  0  0  0  0  0  0  0
    7.5343    7.5034    0.0000 H   0  0  0  0  0  0  0  0  0  0  0  0
    8.2056    7.9911    0.0000 H   0  0  0  0  0  0  0  0  0  0  0  0
    5.9801    9.6080    0.0000 H   0  0  0  0  0  0  0  0  0  0  0  0
    5.7237    8.8189    0.0000 H   0  0  0  0  0  0  0  0  0  0  0  0
    8.4745    8.8189    0.0000 H   0  0  0  0  0  0  0  0  0  0  0  0
    8.2181    9.6080    0.0000 H   0  0  0  0  0  0  0  0  0  0  0  0
    7.5140   10.1196    0.0000 H   0  0  0  0  0  0  0  0  0  0  0  0
    6.6842   10.1196    0.0000 H   0  0  0  0  0  0  0  0  0  0  0  0
    8.0021    6.9300    0.0000 H   0  0  0  0  0  0  0  0  0  0  0  0
    5.1962    6.9300    0.0000 H   0  0  0  0  0  0  0  0  0  0  0  0
    8.0021    5.3100    0.0000 H   0  0  0  0  0  0  0  0  0  0  0  0
    5.1962    5.3100    0.0000 H   0  0  0  0  0  0  0  0  0  0  0  0
    7.1360    3.8100    0.0000 H   0  0  0  0  0  0  0  0  0  0  0  0
    7.1360    2.4300    0.0000 H   0  0  0  0  0  0  0  0  0  0  0  0
    4.0010    3.2400    0.0000 H   0  0  0  0  0  0  0  0  0  0  0  0
    2.7365    1.6450    0.0000 H   0  0  0  0  0  0  0  0  0  0  0  0
    3.5335    1.6450    0.0000 H   0  0  0  0  0  0  0  0  0  0  0  0
    7.1360    0.8100    0.0000 H   0  0  0  0  0  0  0  0  0  0  0  0
    5.7331    0.0000    0.0000 H   0  0  0  0  0  0  0  0  0  0  0  0
    2.8059    3.9300    0.0000 H   0  0  0  0  0  0  0  0  0  0  0  0
    1.4030    1.5000    0.0000 H   0  0  0  0  0  0  0  0  0  0  0  0
    1.4030    4.7400    0.0000 H   0  0  0  0  0  0  0  0  0  0  0  0
    0.0000    2.3100    0.0000 H   0  0  0  0  0  0  0  0  0  0  0  0
   10.7015    5.1822    0.0000 H   0  0  0  0  0  0  0  0  0  0  0  0
   10.4745    4.3352    0.0000 H   0  0  0  0  0  0  0  0  0  0  0  0
   11.3215    4.1083    0.0000 H   0  0  0  0  0  0  0  0  0  0  0  0
   13.2805    5.3352    0.0000 H   0  0  0  0  0  0  0  0  0  0  0  0
  1  3  1  0  0  0  0
  1  4  2  0  0  0  0
  1  5  2  0  0  0  0
  1 35  1  0  0  0  0
  2 23  2  0  0  0  0
  3 62  1  0  0  0  0
  6 17  3  0  0  0  0
  7 22  1  0  0  0  0
  7 23  1  0  0  0  0
  7 48  1  0  0  0  0
  8 25  1  0  0  0  0
  8 27  1  0  0  0  0
  8 50  1  0  0  0  0
  9 25  1  0  0  0  0
  9 30  2  0  0  0  0
 10 33  2  0  0  0  0
 10 34  1  0  0  0  0
 11 12  1  0  0  0  0
 11 13  1  0  0  0  0
 11 16  1  0  0  0  0
 11 17  1  0  0  0  0
 12 14  1  0  0  0  0
 12 36  1  0  0  0  0
 12 37  1  0  0  0  0
 13 15  1  0  0  0  0
 13 38  1  0  0  0  0
 13 39  1  0  0  0  0
 14 15  1  0  0  0  0
 14 40  1  0  0  0  0
 14 41  1  0  0  0  0
 15 42  1  0  0  0  0
 15 43  1  0  0  0  0
 16 18  2  0  0  0  0
 16 19  1  0  0  0  0
 18 20  1  0  0  0  0
 18 44  1  0  0  0  0
 19 21  2  0  0  0  0
 19 45  1  0  0  0  0
 20 22  2  0  0  0  0
 20 46  1  0  0  0  0
 21 22  1  0  0  0  0
 21 47  1  0  0  0  0
 23 24  1  0  0  0  0
 24 25  2  0  0  0  0
 24 26  1  0  0  0  0
 26 28  2  0  0  0  0
 26 49  1  0  0  0  0
 27 29  1  0  0  0  0
 27 51  1  0  0  0  0
 27 52  1  0  0  0  0
 28 30  1  0  0  0  0
 28 53  1  0  0  0  0
 29 31  2  0  0  0  0
 29 32  1  0  0  0  0
 30 54  1  0  0  0  0
 31 33  1  0  0  0  0
 31 55  1  0  0  0  0
 32 34  2  0  0  0  0
 32 56  1  0  0  0  0
 33 57  1  0  0  0  0
 34 58  1  0  0  0  0
 35 59  1  0  0  0  0
 35 60  1  0  0  0  0
 35 61  1  0  0  0  0
M  END
> <PUBCHEM_COMPOUND_CID>
45139106

> <PUBCHEM_COMPOUND_CANONICALIZED>
1

> <PUBCHEM_CACTVS_COMPLEXITY>
701

> <PUBCHEM_CACTVS_HBOND_ACCEPTOR>
8

> <PUBCHEM_CACTVS_HBOND_DONOR>
3

> <PUBCHEM_CACTVS_ROTATABLE_BOND>
6

> <PUBCHEM_CACTVS_SUBSKEYS>
AAADceB7uABAAAAAAAAAAAAAAAAAAYAAAAA8WIAAAAAAAAAB8AAAHgQQCAAADgjBmgS/8JLIEIK4Bjd3dHCCgCk1AiAJ2KE4ZNiIoPrA3ZGEIYholALIye8YgcAPiAAAAAAAAAAQAAAAAAAAAAAAAAAAAA==

> <PUBCHEM_IUPAC_OPENEYE_NAME>
N-[4-(1-cyanocyclopentyl)phenyl]-2-(4-pyridylmethylamino)pyridine-3-carboxamide;methanesulfonic acid

> <PUBCHEM_IUPAC_CAS_NAME>
N-[4-(1-cyanocyclopentyl)phenyl]-2-(pyridin-4-ylmethylamino)-3-pyridinecarboxamide;methanesulfonic acid

> <PUBCHEM_IUPAC_NAME_MARKUP>
<I>N</I>-[4-(1-cyanocyclopentyl)phenyl]-2-(pyridin-4-ylmethylamino)pyridine-3-carboxamide;methanesulfonic acid

> <PUBCHEM_IUPAC_NAME>
N-[4-(1-cyanocyclopentyl)phenyl]-2-(pyridin-4-ylmethylamino)pyridine-3-carboxamide;methanesulfonic acid

> <PUBCHEM_IUPAC_SYSTEMATIC_NAME>
N-[4-(1-cyanocyclopentyl)phenyl]-2-(pyridin-4-ylmethylamino)pyridine-3-carboxamide;methanesulfonic acid

> <PUBCHEM_IUPAC_TRADITIONAL_NAME>
N-[4-(1-cyanocyclopentyl)phenyl]-2-(4-pyridylmethylamino)nicotinamide;mesylic acid

> <PUBCHEM_IUPAC_INCHI>
InChI=1S/C24H23N5O.CH4O3S/c25-17-24(11-1-2-12-24)19-5-7-20(8-6-19)29-23(30)21-4-3-13-27-22(21)28-16-18-9-14-26-15-10-18;1-5(2,3)4/h3-10,13-15H,1-2,11-12,16H2,(H,27,28)(H,29,30);1H3,(H,2,3,4)

> <PUBCHEM_IUPAC_INCHIKEY>
FYJROXRIVQPKRY-UHFFFAOYSA-N

> <PUBCHEM_EXACT_MASS>
493.17837553

> <PUBCHEM_MOLECULAR_FORMULA>
C25H27N5O4S

> <PUBCHEM_MOLECULAR_WEIGHT>
493.6

> <PUBCHEM_OPENEYE_CAN_SMILES>
CS(=O)(=O)O.C1CCC(C1)(C#N)C2=CC=C(C=C2)NC(=O)C3=C(N=CC=C3)NCC4=CC=NC=C4

> <PUBCHEM_OPENEYE_ISO_SMILES>
CS(=O)(=O)O.C1CCC(C1)(C#N)C2=CC=C(C=C2)NC(=O)C3=C(N=CC=C3)NCC4=CC=NC=C4

> <PUBCHEM_CACTVS_TPSA>
153

> <PUBCHEM_MONOISOTOPIC_WEIGHT>
493.17837553

> <PUBCHEM_TOTAL_CHARGE>
0

> <PUBCHEM_HEAVY_ATOM_COUNT>
35

> <PUBCHEM_ATOM_DEF_STEREO_COUNT>
0

> <PUBCHEM_ATOM_UDEF_STEREO_COUNT>
0

> <PUBCHEM_BOND_DEF_STEREO_COUNT>
0

> <PUBCHEM_BOND_UDEF_STEREO_COUNT>
0

> <PUBCHEM_ISOTOPIC_ATOM_COUNT>
0

> <PUBCHEM_COMPONENT_COUNT>
2

> <PUBCHEM_CACTVS_TAUTO_COUNT>
-1

> <PUBCHEM_COORDINATE_TYPE>
1
5
255

> <PUBCHEM_BONDANNOTATIONS>
10  33  8
10  34  8
16  18  8
16  19  8
18  20  8
19  21  8
20  22  8
21  22  8
24  25  8
24  26  8
26  28  8
28  30  8
29  31  8
29  32  8
31  33  8
32  34  8
9  25  8
9  30  8

$$$$
71584930
  -OEChem-11282412102D

 54 57  0     0  0  0  0  0  0999 V2000
    9.7942    2.5000    0.0000 Br  0  0  0  0  0  0  0  0  0  0  0  0
    6.3301    2.5000    0.0000 F   0  0  0  0  0  0  0  0  0  0  0  0
    8.9282   -1.0000    0.0000 O   0  0  0  0  0  0  0  0  0  0  0  0
    5.4641    2.0000    0.0000 O   0  0  0  0  0  0  0  0  0  0  0  0
   10.6603   -1.0000    0.0000 N   0  0  0  0  0  0  0  0  0  0  0  0
   13.3263    0.5208    0.0000 N   0  0  0  0  0  0  0  0  0  0  0  0
   14.1904   -1.0241    0.0000 N   0  0  0  0  0  0  0  0  0  0  0  0
    6.3301    0.5000    0.0000 N   0  0  0  0  0  0  0  0  0  0  0  0
    4.5981    0.5000    0.0000 N   0  0  0  0  0  0  0  0  0  0  0  0
   11.5263   -0.5000    0.0000 C   0  0  0  0  0  0  0  0  0  0  0  0
    9.7942    0.5000    0.0000 C   0  0  0  0  0  0  0  0  0  0  0  0
   11.5263    0.5000    0.0000 C   0  0  0  0  0  0  0  0  0  0  0  0
    9.7942   -0.5000    0.0000 C   0  0  0  0  0  0  0  0  0  0  0  0
   10.6603   -2.0000    0.0000 C   0  0  0  0  0  0  0  0  0  0  0  0
   10.6603    1.0000    0.0000 C   0  0  0  0  0  0  0  0  0  0  0  0
    8.9282    1.0000    0.0000 C   0  0  0  0  0  0  0  0  0  0  0  0
   12.4202   -1.0347    0.0000 C   0  0  0  0  0  0  0  0  0  0  0  0
   12.4202    1.0347    0.0000 C   0  0  0  0  0  0  0  0  0  0  0  0
   13.3263   -0.5208    0.0000 C   0  0  0  0  0  0  0  0  0  0  0  0
    9.7942   -2.5000    0.0000 C   0  0  0  0  0  0  0  0  0  0  0  0
    8.0622    0.5000    0.0000 C   0  0  0  0  0  0  0  0  0  0  0  0
    8.9282    2.0000    0.0000 C   0  0  0  0  0  0  0  0  0  0  0  0
    7.1962    1.0000    0.0000 C   0  0  0  0  0  0  0  0  0  0  0  0
    8.0622    2.5000    0.0000 C   0  0  0  0  0  0  0  0  0  0  0  0
    7.1962    2.0000    0.0000 C   0  0  0  0  0  0  0  0  0  0  0  0
   15.0583   -0.5275    0.0000 C   0  0  0  0  0  0  0  0  0  0  0  0
    5.4641    1.0000    0.0000 C   0  0  0  0  0  0  0  0  0  0  0  0
    3.7320    1.0000    0.0000 C   0  0  0  0  0  0  0  0  0  0  0  0
    3.7320    2.0000    0.0000 C   0  0  0  0  0  0  0  0  0  0  0  0
    2.8660    0.5000    0.0000 C   0  0  0  0  0  0  0  0  0  0  0  0
    2.8660    2.5000    0.0000 C   0  0  0  0  0  0  0  0  0  0  0  0
    2.0000    1.0000    0.0000 C   0  0  0  0  0  0  0  0  0  0  0  0
    2.0000    2.0000    0.0000 C   0  0  0  0  0  0  0  0  0  0  0  0
   10.8723   -2.5826    0.0000 H   0  0  0  0  0  0  0  0  0  0  0  0
   11.2708   -1.8923    0.0000 H   0  0  0  0  0  0  0  0  0  0  0  0
   10.6603    1.6200    0.0000 H   0  0  0  0  0  0  0  0  0  0  0  0
   12.4131   -1.6546    0.0000 H   0  0  0  0  0  0  0  0  0  0  0  0
   12.4131    1.6546    0.0000 H   0  0  0  0  0  0  0  0  0  0  0  0
    9.4842   -1.9631    0.0000 H   0  0  0  0  0  0  0  0  0  0  0  0
    9.2573   -2.8100    0.0000 H   0  0  0  0  0  0  0  0  0  0  0  0
   10.1042   -3.0369    0.0000 H   0  0  0  0  0  0  0  0  0  0  0  0
    8.0622   -0.1200    0.0000 H   0  0  0  0  0  0  0  0  0  0  0  0
    8.0622    3.1200    0.0000 H   0  0  0  0  0  0  0  0  0  0  0  0
   14.1880   -1.6442    0.0000 H   0  0  0  0  0  0  0  0  0  0  0  0
    6.3301   -0.1200    0.0000 H   0  0  0  0  0  0  0  0  0  0  0  0
   15.3663   -1.0656    0.0000 H   0  0  0  0  0  0  0  0  0  0  0  0
   15.5965   -0.2196    0.0000 H   0  0  0  0  0  0  0  0  0  0  0  0
   14.7504    0.0106    0.0000 H   0  0  0  0  0  0  0  0  0  0  0  0
    4.5981   -0.1200    0.0000 H   0  0  0  0  0  0  0  0  0  0  0  0
    4.2690    2.3100    0.0000 H   0  0  0  0  0  0  0  0  0  0  0  0
    2.8660   -0.1200    0.0000 H   0  0  0  0  0  0  0  0  0  0  0  0
    2.8660    3.1200    0.0000 H   0  0  0  0  0  0  0  0  0  0  0  0
    1.4631    0.6900    0.0000 H   0  0  0  0  0  0  0  0  0  0  0  0
    1.4631    2.3100    0.0000 H   0  0  0  0  0  0  0  0  0  0  0  0
  1 22  1  0  0  0  0
  2 25  1  0  0  0  0
  3 13  2  0  0  0  0
  4 27  2  0  0  0  0
  5 10  1  0  0  0  0
  5 13  1  0  0  0  0
  5 14  1  0  0  0  0
  6 18  1  0  0  0  0
  6 19  2  0  0  0  0
  7 19  1  0  0  0  0
  7 26  1  0  0  0  0
  7 44  1  0  0  0  0
  8 23  1  0  0  0  0
  8 27  1  0  0  0  0
  8 45  1  0  0  0  0
  9 27  1  0  0  0  0
  9 28  1  0  0  0  0
  9 49  1  0  0  0  0
 10 12  1  0  0  0  0
 10 17  2  0  0  0  0
 11 13  1  0  0  0  0
 11 15  2  0  0  0  0
 11 16  1  0  0  0  0
 12 15  1  0  0  0  0
 12 18  2  0  0  0  0
 14 20  1  0  0  0  0
 14 34  1  0  0  0  0
 14 35  1  0  0  0  0
 15 36  1  0  0  0  0
 16 21  2  0  0  0  0
 16 22  1  0  0  0  0
 17 19  1  0  0  0  0
 17 37  1  0  0  0  0
 18 38  1  0  0  0  0
 20 39  1  0  0  0  0
 20 40  1  0  0  0  0
 20 41  1  0  0  0  0
 21 23  1  0  0  0  0
 21 42  1  0  0  0  0
 22 24  2  0  0  0  0
 23 25  2  0  0  0  0
 24 25  1  0  0  0  0
 24 43  1  0  0  0  0
 26 46  1  0  0  0  0
 26 47  1  0  0  0  0
 26 48  1  0  0  0  0
 28 29  2  0  0  0  0
 28 30  1  0  0  0  0
 29 31  1  0  0  0  0
 29 50  1  0  0  0  0
 30 32  2  0  0  0  0
 30 51  1  0  0  0  0
 31 33  2  0  0  0  0
 31 52  1  0  0  0  0
 32 33  1  0  0  0  0
 32 53  1  0  0  0  0
 33 54  1  0  0  0  0
M  END
> <PUBCHEM_COMPOUND_CID>
71584930

> <PUBCHEM_COMPOUND_CANONICALIZED>
1

> <PUBCHEM_CACTVS_COMPLEXITY>
746

> <PUBCHEM_CACTVS_HBOND_ACCEPTOR>
5

> <PUBCHEM_CACTVS_HBOND_DONOR>
3

> <PUBCHEM_CACTVS_ROTATABLE_BOND>
5

> <PUBCHEM_CACTVS_SUBSKEYS>
AAADceB7sQAAEAAAAAAAAAAAAAAAAAAAAAA8YIEAAAAAAACB0AAAHwBQAAABrAjBmgw/8JPIEACoAjd3dACCgCkxAiQJ2KE4ZPiIIHLA1dGEJAholgLIy7cYiYCeAAAgQAAAgAAAAECAAAEAAAAAAAAAAA==

> <PUBCHEM_IUPAC_OPENEYE_NAME>
1-[4-bromo-5-[1-ethyl-7-(methylamino)-2-oxo-1,6-naphthyridin-3-yl]-2-fluoro-phenyl]-3-phenyl-urea

> <PUBCHEM_IUPAC_CAS_NAME>
1-[4-bromo-5-[1-ethyl-7-(methylamino)-2-oxo-1,6-naphthyridin-3-yl]-2-fluorophenyl]-3-phenylurea

> <PUBCHEM_IUPAC_NAME_MARKUP>
1-[4-bromo-5-[1-ethyl-7-(methylamino)-2-oxo-1,6-naphthyridin-3-yl]-2-fluorophenyl]-3-phenylurea

> <PUBCHEM_IUPAC_NAME>
1-[4-bromo-5-[1-ethyl-7-(methylamino)-2-oxo-1,6-naphthyridin-3-yl]-2-fluorophenyl]-3-phenylurea

> <PUBCHEM_IUPAC_SYSTEMATIC_NAME>
1-[4-bromanyl-5-[1-ethyl-7-(methylamino)-2-oxidanylidene-1,6-naphthyridin-3-yl]-2-fluoranyl-phenyl]-3-phenyl-urea

> <PUBCHEM_IUPAC_TRADITIONAL_NAME>
1-[4-bromo-5-[1-ethyl-2-keto-7-(methylamino)-1,6-naphthyridin-3-yl]-2-fluoro-phenyl]-3-phenyl-urea

> <PUBCHEM_IUPAC_INCHI>
InChI=1S/C24H21BrFN5O2/c1-3-31-21-12-22(27-2)28-13-14(21)9-17(23(31)32)16-10-20(19(26)11-18(16)25)30-24(33)29-15-7-5-4-6-8-15/h4-13H,3H2,1-2H3,(H,27,28)(H2,29,30,33)

> <PUBCHEM_IUPAC_INCHIKEY>
CEFJVGZHQAGLHS-UHFFFAOYSA-N

> <PUBCHEM_XLOGP3_AA>
4.1

> <PUBCHEM_EXACT_MASS>
509.08627

> <PUBCHEM_MOLECULAR_FORMULA>
C24H21BrFN5O2

> <PUBCHEM_MOLECULAR_WEIGHT>
510.4

> <PUBCHEM_OPENEYE_CAN_SMILES>
CCN1C2=CC(=NC=C2C=C(C1=O)C3=CC(=C(C=C3Br)F)NC(=O)NC4=CC=CC=C4)NC

> <PUBCHEM_OPENEYE_ISO_SMILES>
CCN1C2=CC(=NC=C2C=C(C1=O)C3=CC(=C(C=C3Br)F)NC(=O)NC4=CC=CC=C4)NC

> <PUBCHEM_CACTVS_TPSA>
86.4

> <PUBCHEM_MONOISOTOPIC_WEIGHT>
509.08627

> <PUBCHEM_TOTAL_CHARGE>
0

> <PUBCHEM_HEAVY_ATOM_COUNT>
33

> <PUBCHEM_ATOM_DEF_STEREO_COUNT>
0

> <PUBCHEM_ATOM_UDEF_STEREO_COUNT>
0

> <PUBCHEM_BOND_DEF_STEREO_COUNT>
0

> <PUBCHEM_BOND_UDEF_STEREO_COUNT>
0

> <PUBCHEM_ISOTOPIC_ATOM_COUNT>
0

> <PUBCHEM_COMPONENT_COUNT>
1

> <PUBCHEM_CACTVS_TAUTO_COUNT>
-1

> <PUBCHEM_COORDINATE_TYPE>
1
5
255

> <PUBCHEM_BONDANNOTATIONS>
10  12  8
10  17  8
11  13  8
11  15  8
12  15  8
12  18  8
16  21  8
16  22  8
17  19  8
21  23  8
22  24  8
23  25  8
24  25  8
28  29  8
28  30  8
29  31  8
30  32  8
31  33  8
32  33  8
5  10  8
5  13  8
6  18  8
6  19  8

$$$$
118878093
  -OEChem-11282412102D

 49 53  0     1  0  0  0  0  0999 V2000
    9.9389    3.3549    0.0000 F   0  0  0  0  0  0  0  0  0  0  0  0
    9.9389    5.0870    0.0000 F   0  0  0  0  0  0  0  0  0  0  0  0
    7.0729    2.8549    0.0000 O   0  0  0  0  0  0  0  0  0  0  0  0
    8.5729    1.9889    0.0000 N   0  0  0  0  0  0  0  0  0  0  0  0
    7.0006   -0.2661    0.0000 N   0  0  0  0  0  0  0  0  0  0  0  0
    5.8872   -1.5929    0.0000 N   0  0  0  0  0  0  0  0  0  0  0  0
    4.1815   -1.2922    0.0000 N   0  0  0  0  0  0  0  0  0  0  0  0
    4.7739   -2.9198    0.0000 N   0  0  0  0  0  0  0  0  0  0  0  0
    2.5592   -4.2579    0.0000 N   0  0  0  0  0  0  0  0  0  0  0  0
    2.2172   -3.3182    0.0000 N   0  0  0  0  0  0  0  0  0  0  0  0
    9.0507    0.0404    0.0000 C   0  0  2  0  0  0  0  0  0  0  0  0
    9.3095    1.0063    0.0000 C   0  0  1  0  0  0  0  0  0  0  0  0
    8.5729    3.7210    0.0000 C   0  0  1  0  0  0  0  0  0  0  0  0
   10.4496   -0.4685    0.0000 C   0  0  0  0  0  0  0  0  0  0  0  0
   10.7084    0.4975    0.0000 C   0  0  0  0  0  0  0  0  0  0  0  0
    7.8296   -0.8253    0.0000 C   0  0  0  0  0  0  0  0  0  0  0  0
    7.2762    0.6952    0.0000 C   0  0  0  0  0  0  0  0  0  0  0  0
    9.4389    4.2210    0.0000 C   0  0  0  0  0  0  0  0  0  0  0  0
    8.5729    4.7210    0.0000 C   0  0  0  0  0  0  0  0  0  0  0  0
    8.0729    2.8549    0.0000 C   0  0  0  0  0  0  0  0  0  0  0  0
    6.0609   -0.6081    0.0000 C   0  0  0  0  0  0  0  0  0  0  0  0
    5.2949    0.0347    0.0000 C   0  0  0  0  0  0  0  0  0  0  0  0
    4.3552   -0.3074    0.0000 C   0  0  0  0  0  0  0  0  0  0  0  0
    4.9476   -1.9350    0.0000 C   0  0  0  0  0  0  0  0  0  0  0  0
    3.8342   -3.2618    0.0000 C   0  0  0  0  0  0  0  0  0  0  0  0
    3.5586   -4.2230    0.0000 C   0  0  0  0  0  0  0  0  0  0  0  0
    3.0052   -2.7026    0.0000 C   0  0  0  0  0  0  0  0  0  0  0  0
    2.0000   -5.0870    0.0000 C   0  0  0  0  0  0  0  0  0  0  0  0
    8.8307   -0.7807    0.0000 H   0  0  0  0  0  0  0  0  0  0  0  0
    9.5295    1.8273    0.0000 H   0  0  0  0  0  0  0  0  0  0  0  0
    7.9740    3.8814    0.0000 H   0  0  0  0  0  0  0  0  0  0  0  0
   10.2547   -1.0570    0.0000 H   0  0  0  0  0  0  0  0  0  0  0  0
   11.0436   -0.6462    0.0000 H   0  0  0  0  0  0  0  0  0  0  0  0
   11.3024    0.3197    0.0000 H   0  0  0  0  0  0  0  0  0  0  0  0
   10.9033    1.0860    0.0000 H   0  0  0  0  0  0  0  0  0  0  0  0
    7.4238   -1.2940    0.0000 H   0  0  0  0  0  0  0  0  0  0  0  0
    8.2463   -1.2844    0.0000 H   0  0  0  0  0  0  0  0  0  0  0  0
    7.2712    1.3151    0.0000 H   0  0  0  0  0  0  0  0  0  0  0  0
    6.6619    0.7789    0.0000 H   0  0  0  0  0  0  0  0  0  0  0  0
    8.7849    5.3036    0.0000 H   0  0  0  0  0  0  0  0  0  0  0  0
    7.9623    4.8286    0.0000 H   0  0  0  0  0  0  0  0  0  0  0  0
    5.4025    0.6452    0.0000 H   0  0  0  0  0  0  0  0  0  0  0  0
    3.8802    0.0912    0.0000 H   0  0  0  0  0  0  0  0  0  0  0  0
    5.2489   -3.3183    0.0000 H   0  0  0  0  0  0  0  0  0  0  0  0
    3.9403   -4.7116    0.0000 H   0  0  0  0  0  0  0  0  0  0  0  0
    2.9836   -2.0830    0.0000 H   0  0  0  0  0  0  0  0  0  0  0  0
    1.4860   -4.7403    0.0000 H   0  0  0  0  0  0  0  0  0  0  0  0
    1.6533   -5.6010    0.0000 H   0  0  0  0  0  0  0  0  0  0  0  0
    2.5140   -5.4337    0.0000 H   0  0  0  0  0  0  0  0  0  0  0  0
  1 18  1  0  0  0  0
  2 18  1  0  0  0  0
  3 20  2  0  0  0  0
  4 11  1  0  0  0  0
  4 12  1  0  0  0  0
  4 20  1  0  0  0  0
  5 16  1  0  0  0  0
  5 17  1  0  0  0  0
  5 21  1  0  0  0  0
  6 21  2  0  0  0  0
  6 24  1  0  0  0  0
  7 23  1  0  0  0  0
  7 24  2  0  0  0  0
  8 24  1  0  0  0  0
  8 25  1  0  0  0  0
  8 44  1  0  0  0  0
  9 10  1  0  0  0  0
  9 26  1  0  0  0  0
  9 28  1  0  0  0  0
 10 27  2  0  0  0  0
 11 14  1  0  0  0  0
 11 16  1  0  0  0  0
 11 29  1  1  0  0  0
 12 15  1  0  0  0  0
 12 17  1  0  0  0  0
 12 30  1  6  0  0  0
 13 18  1  0  0  0  0
 13 19  1  0  0  0  0
 13 20  1  6  0  0  0
 13 31  1  0  0  0  0
 14 15  1  0  0  0  0
 14 32  1  0  0  0  0
 14 33  1  0  0  0  0
 15 34  1  0  0  0  0
 15 35  1  0  0  0  0
 16 36  1  0  0  0  0
 16 37  1  0  0  0  0
 17 38  1  0  0  0  0
 17 39  1  0  0  0  0
 18 19  1  0  0  0  0
 19 40  1  0  0  0  0
 19 41  1  0  0  0  0
 21 22  1  0  0  0  0
 22 23  2  0  0  0  0
 22 42  1  0  0  0  0
 23 43  1  0  0  0  0
 25 26  2  0  0  0  0
 25 27  1  0  0  0  0
 26 45  1  0  0  0  0
 27 46  1  0  0  0  0
 28 47  1  0  0  0  0
 28 48  1  0  0  0  0
 28 49  1  0  0  0  0
M  END
> <PUBCHEM_COMPOUND_CID>
118878093

> <PUBCHEM_COMPOUND_CANONICALIZED>
1

> <PUBCHEM_CACTVS_COMPLEXITY>
609

> <PUBCHEM_CACTVS_HBOND_ACCEPTOR>
8

> <PUBCHEM_CACTVS_HBOND_DONOR>
1

> <PUBCHEM_CACTVS_ROTATABLE_BOND>
4

> <PUBCHEM_CACTVS_SUBSKEYS>
AAADceB7oYAAAAAAAAAAAAAAGAAAAWLAAAAsWAAABYAAAAAB4AAAHwAYAAAADSjBkhQ/8JfIEACqADd3dACQhCkRkqAZUCE4dBCASJJAyUAUhAgIHgLAACEQAAAAAAAAAAAAAAAAAAAAAAAAAAAAAAAAAA==

> <PUBCHEM_IUPAC_OPENEYE_NAME>
[(1S)-2,2-difluorocyclopropyl]-[(1R,5S)-3-[2-[(1-methylpyrazol-4-yl)amino]pyrimidin-4-yl]-3,8-diazabicyclo[3.2.1]octan-8-yl]methanone

> <PUBCHEM_IUPAC_CAS_NAME>
[(1S)-2,2-difluorocyclopropyl]-[(1R,5S)-3-[2-[(1-methyl-4-pyrazolyl)amino]-4-pyrimidinyl]-3,8-diazabicyclo[3.2.1]octan-8-yl]methanone

> <PUBCHEM_IUPAC_NAME_MARKUP>
[(1<I>S</I>)-2,2-difluorocyclopropyl]-[(1<I>R</I>,5<I>S</I>)-3-[2-[(1-methylpyrazol-4-yl)amino]pyrimidin-4-yl]-3,8-diazabicyclo[3.2.1]octan-8-yl]methanone

> <PUBCHEM_IUPAC_NAME>
[(1S)-2,2-difluorocyclopropyl]-[(1R,5S)-3-[2-[(1-methylpyrazol-4-yl)amino]pyrimidin-4-yl]-3,8-diazabicyclo[3.2.1]octan-8-yl]methanone

> <PUBCHEM_IUPAC_SYSTEMATIC_NAME>
[(1S)-2,2-bis(fluoranyl)cyclopropyl]-[(1R,5S)-3-[2-[(1-methylpyrazol-4-yl)amino]pyrimidin-4-yl]-3,8-diazabicyclo[3.2.1]octan-8-yl]methanone

> <PUBCHEM_IUPAC_TRADITIONAL_NAME>
[(1S)-2,2-difluorocyclopropyl]-[(1R,5S)-3-[2-[(1-methylpyrazol-4-yl)amino]pyrimidin-4-yl]-3,8-diazabicyclo[3.2.1]octan-8-yl]methanone

> <PUBCHEM_IUPAC_INCHI>
InChI=1S/C18H21F2N7O/c1-25-8-11(7-22-25)23-17-21-5-4-15(24-17)26-9-12-2-3-13(10-26)27(12)16(28)14-6-18(14,19)20/h4-5,7-8,12-14H,2-3,6,9-10H2,1H3,(H,21,23,24)/t12-,13+,14-/m0/s1

> <PUBCHEM_IUPAC_INCHIKEY>
BUWBRTXGQRBBHG-MJBXVCDLSA-N

> <PUBCHEM_XLOGP3_AA>
1.5

> <PUBCHEM_EXACT_MASS>
389.17756464

> <PUBCHEM_MOLECULAR_FORMULA>
C18H21F2N7O

> <PUBCHEM_MOLECULAR_WEIGHT>
389.4

> <PUBCHEM_OPENEYE_CAN_SMILES>
CN1C=C(C=N1)NC2=NC=CC(=N2)N3CC4CCC(C3)N4C(=O)C5CC5(F)F

> <PUBCHEM_OPENEYE_ISO_SMILES>
CN1C=C(C=N1)NC2=NC=CC(=N2)N3C[C@H]4CC[C@@H](C3)N4C(=O)[C@@H]5CC5(F)F

> <PUBCHEM_CACTVS_TPSA>
79.2

> <PUBCHEM_MONOISOTOPIC_WEIGHT>
389.17756464

> <PUBCHEM_TOTAL_CHARGE>
0

> <PUBCHEM_HEAVY_ATOM_COUNT>
28

> <PUBCHEM_ATOM_DEF_STEREO_COUNT>
3

> <PUBCHEM_ATOM_UDEF_STEREO_COUNT>
0

> <PUBCHEM_BOND_DEF_STEREO_COUNT>
0

> <PUBCHEM_BOND_UDEF_STEREO_COUNT>
0

> <PUBCHEM_ISOTOPIC_ATOM_COUNT>
0

> <PUBCHEM_COMPONENT_COUNT>
1

> <PUBCHEM_CACTVS_TAUTO_COUNT>
-1

> <PUBCHEM_COORDINATE_TYPE>
1
5
255

> <PUBCHEM_BONDANNOTATIONS>
10  27  8
11  29  5
12  30  6
13  20  6
21  22  8
22  23  8
25  26  8
25  27  8
6  21  8
6  24  8
7  23  8
7  24  8
9  10  8
9  26  8

$$$$
25171648
  -OEChem-11282412102D

 65 69  0     0  0  0  0  0  0999 V2000
    9.7942    0.2500    0.0000 O   0  0  0  0  0  0  0  0  0  0  0  0
    2.0000   -0.2500    0.0000 O   0  0  0  0  0  0  0  0  0  0  0  0
   13.2583    1.2500    0.0000 N   0  0  0  0  0  0  0  0  0  0  0  0
    7.1962   -0.2500    0.0000 N   0  0  0  0  0  0  0  0  0  0  0  0
    8.0622   -1.7500    0.0000 N   0  0  0  0  0  0  0  0  0  0  0  0
    3.7320   -0.2500    0.0000 N   0  0  0  0  0  0  0  0  0  0  0  0
    4.5981    0.2500    0.0000 N   0  0  0  0  0  0  0  0  0  0  0  0
    8.9282    0.7500    0.0000 N   0  0  0  0  0  0  0  0  0  0  0  0
   11.5263    0.2500    0.0000 C   0  0  0  0  0  0  0  0  0  0  0  0
   12.3923   -0.2500    0.0000 C   0  0  0  0  0  0  0  0  0  0  0  0
   11.5263    1.2500    0.0000 C   0  0  0  0  0  0  0  0  0  0  0  0
   13.2583    0.2500    0.0000 C   0  0  0  0  0  0  0  0  0  0  0  0
   12.3923    1.7500    0.0000 C   0  0  0  0  0  0  0  0  0  0  0  0
   10.6603   -0.2500    0.0000 C   0  0  0  0  0  0  0  0  0  0  0  0
   14.1244    1.7500    0.0000 C   0  0  0  0  0  0  0  0  0  0  0  0
    8.9282   -0.2500    0.0000 C   0  0  0  0  0  0  0  0  0  0  0  0
    8.0622    0.2500    0.0000 C   0  0  0  0  0  0  0  0  0  0  0  0
    8.9282   -1.2500    0.0000 C   0  0  0  0  0  0  0  0  0  0  0  0
    7.1962   -1.2500    0.0000 C   0  0  0  0  0  0  0  0  0  0  0  0
    6.3301   -1.7500    0.0000 C   0  0  0  0  0  0  0  0  0  0  0  0
    4.5981   -1.7500    0.0000 C   0  0  0  0  0  0  0  0  0  0  0  0
    3.7320   -1.2500    0.0000 C   0  0  0  0  0  0  0  0  0  0  0  0
    5.4641   -1.2500    0.0000 C   0  0  0  0  0  0  0  0  0  0  0  0
    6.3301   -2.7500    0.0000 C   0  0  0  0  0  0  0  0  0  0  0  0
    4.5981   -2.7500    0.0000 C   0  0  0  0  0  0  0  0  0  0  0  0
    5.4641   -3.2500    0.0000 C   0  0  0  0  0  0  0  0  0  0  0  0
    4.5981    1.2500    0.0000 C   0  0  0  0  0  0  0  0  0  0  0  0
    2.8660    0.2500    0.0000 C   0  0  0  0  0  0  0  0  0  0  0  0
    5.4641    1.7500    0.0000 C   0  0  0  0  0  0  0  0  0  0  0  0
    3.7320    1.7500    0.0000 C   0  0  0  0  0  0  0  0  0  0  0  0
    2.8660    1.2500    0.0000 C   0  0  0  0  0  0  0  0  0  0  0  0
    6.3301    1.2500    0.0000 C   0  0  0  0  0  0  0  0  0  0  0  0
    5.4641    2.7500    0.0000 C   0  0  0  0  0  0  0  0  0  0  0  0
    7.1962    1.7500    0.0000 C   0  0  0  0  0  0  0  0  0  0  0  0
    6.3301    3.2500    0.0000 C   0  0  0  0  0  0  0  0  0  0  0  0
    7.1962    2.7500    0.0000 C   0  0  0  0  0  0  0  0  0  0  0  0
    8.0622    1.2500    0.0000 C   0  0  0  0  0  0  0  0  0  0  0  0
   10.9893    0.5600    0.0000 H   0  0  0  0  0  0  0  0  0  0  0  0
   11.9938   -0.7249    0.0000 H   0  0  0  0  0  0  0  0  0  0  0  0
   12.7908   -0.7249    0.0000 H   0  0  0  0  0  0  0  0  0  0  0  0
   11.3142    1.8326    0.0000 H   0  0  0  0  0  0  0  0  0  0  0  0
   10.9157    1.1423    0.0000 H   0  0  0  0  0  0  0  0  0  0  0  0
   13.4704   -0.3326    0.0000 H   0  0  0  0  0  0  0  0  0  0  0  0
   13.8689    0.3577    0.0000 H   0  0  0  0  0  0  0  0  0  0  0  0
   12.7908    2.2250    0.0000 H   0  0  0  0  0  0  0  0  0  0  0  0
   11.9938    2.2250    0.0000 H   0  0  0  0  0  0  0  0  0  0  0  0
   10.2617   -0.7249    0.0000 H   0  0  0  0  0  0  0  0  0  0  0  0
   11.0588   -0.7249    0.0000 H   0  0  0  0  0  0  0  0  0  0  0  0
   14.4344    1.2131    0.0000 H   0  0  0  0  0  0  0  0  0  0  0  0
   14.6613    2.0600    0.0000 H   0  0  0  0  0  0  0  0  0  0  0  0
   13.8144    2.2869    0.0000 H   0  0  0  0  0  0  0  0  0  0  0  0
    8.0622    0.8700    0.0000 H   0  0  0  0  0  0  0  0  0  0  0  0
    9.4651   -1.5600    0.0000 H   0  0  0  0  0  0  0  0  0  0  0  0
    3.1215   -1.1423    0.0000 H   0  0  0  0  0  0  0  0  0  0  0  0
    3.5200   -1.8326    0.0000 H   0  0  0  0  0  0  0  0  0  0  0  0
    5.4641   -0.6300    0.0000 H   0  0  0  0  0  0  0  0  0  0  0  0
    6.8671   -3.0600    0.0000 H   0  0  0  0  0  0  0  0  0  0  0  0
    4.0611   -3.0600    0.0000 H   0  0  0  0  0  0  0  0  0  0  0  0
    5.4641   -3.8700    0.0000 H   0  0  0  0  0  0  0  0  0  0  0  0
    3.7320    2.3700    0.0000 H   0  0  0  0  0  0  0  0  0  0  0  0
    2.3291    1.5600    0.0000 H   0  0  0  0  0  0  0  0  0  0  0  0
    6.3301    0.6300    0.0000 H   0  0  0  0  0  0  0  0  0  0  0  0
    4.9272    3.0600    0.0000 H   0  0  0  0  0  0  0  0  0  0  0  0
    6.3301    3.8700    0.0000 H   0  0  0  0  0  0  0  0  0  0  0  0
    7.7331    3.0600    0.0000 H   0  0  0  0  0  0  0  0  0  0  0  0
  1 14  1  0  0  0  0
  1 16  1  0  0  0  0
  2 28  2  0  0  0  0
  3 12  1  0  0  0  0
  3 13  1  0  0  0  0
  3 15  1  0  0  0  0
  4 17  2  0  0  0  0
  4 19  1  0  0  0  0
  5 18  1  0  0  0  0
  5 19  2  0  0  0  0
  6  7  1  0  0  0  0
  6 22  1  0  0  0  0
  6 28  1  0  0  0  0
  7 27  2  0  0  0  0
  8 37  3  0  0  0  0
  9 10  1  0  0  0  0
  9 11  1  0  0  0  0
  9 14  1  0  0  0  0
  9 38  1  0  0  0  0
 10 12  1  0  0  0  0
 10 39  1  0  0  0  0
 10 40  1  0  0  0  0
 11 13  1  0  0  0  0
 11 41  1  0  0  0  0
 11 42  1  0  0  0  0
 12 43  1  0  0  0  0
 12 44  1  0  0  0  0
 13 45  1  0  0  0  0
 13 46  1  0  0  0  0
 14 47  1  0  0  0  0
 14 48  1  0  0  0  0
 15 49  1  0  0  0  0
 15 50  1  0  0  0  0
 15 51  1  0  0  0  0
 16 17  1  0  0  0  0
 16 18  2  0  0  0  0
 17 52  1  0  0  0  0
 18 53  1  0  0  0  0
 19 20  1  0  0  0  0
 20 23  1  0  0  0  0
 20 24  2  0  0  0  0
 21 22  1  0  0  0  0
 21 23  2  0  0  0  0
 21 25  1  0  0  0  0
 22 54  1  0  0  0  0
 22 55  1  0  0  0  0
 23 56  1  0  0  0  0
 24 26  1  0  0  0  0
 24 57  1  0  0  0  0
 25 26  2  0  0  0  0
 25 58  1  0  0  0  0
 26 59  1  0  0  0  0
 27 29  1  0  0  0  0
 27 30  1  0  0  0  0
 28 31  1  0  0  0  0
 29 32  1  0  0  0  0
 29 33  2  0  0  0  0
 30 31  2  0  0  0  0
 30 60  1  0  0  0  0
 31 61  1  0  0  0  0
 32 34  2  0  0  0  0
 32 62  1  0  0  0  0
 33 35  1  0  0  0  0
 33 63  1  0  0  0  0
 34 36  1  0  0  0  0
 34 37  1  0  0  0  0
 35 36  2  0  0  0  0
 35 64  1  0  0  0  0
 36 65  1  0  0  0  0
M  END
> <PUBCHEM_COMPOUND_CID>
25171648

> <PUBCHEM_COMPOUND_CANONICALIZED>
1

> <PUBCHEM_CACTVS_COMPLEXITY>
880

> <PUBCHEM_CACTVS_HBOND_ACCEPTOR>
7

> <PUBCHEM_CACTVS_HBOND_DONOR>
0

> <PUBCHEM_CACTVS_ROTATABLE_BOND>
7

> <PUBCHEM_CACTVS_SUBSKEYS>
AAADceB7sAAAAAAAAAAAAAAAAAAAAAAAAAA8eIECAAAAAAAB0AAAHgAIAAAADQzhmwY/lpcIFAC4BzN3dASyiCkxQKAb2CA7RNiOqKLA2VGHLAjsjgLYia8wgMAOAAACAAAAAAAAAAQAAAAAAAAAAAAAAA==

> <PUBCHEM_IUPAC_OPENEYE_NAME>
3-[1-[[3-[5-[(1-methyl-4-piperidyl)methoxy]pyrimidin-2-yl]phenyl]methyl]-6-oxo-pyridazin-3-yl]benzonitrile

> <PUBCHEM_IUPAC_CAS_NAME>
3-[1-[[3-[5-[(1-methyl-4-piperidinyl)methoxy]-2-pyrimidinyl]phenyl]methyl]-6-oxo-3-pyridazinyl]benzonitrile

> <PUBCHEM_IUPAC_NAME_MARKUP>
3-[1-[[3-[5-[(1-methylpiperidin-4-yl)methoxy]pyrimidin-2-yl]phenyl]methyl]-6-oxopyridazin-3-yl]benzonitrile

> <PUBCHEM_IUPAC_NAME>
3-[1-[[3-[5-[(1-methylpiperidin-4-yl)methoxy]pyrimidin-2-yl]phenyl]methyl]-6-oxopyridazin-3-yl]benzonitrile

> <PUBCHEM_IUPAC_SYSTEMATIC_NAME>
3-[1-[[3-[5-[(1-methylpiperidin-4-yl)methoxy]pyrimidin-2-yl]phenyl]methyl]-6-oxidanylidene-pyridazin-3-yl]benzenecarbonitrile

> <PUBCHEM_IUPAC_TRADITIONAL_NAME>
3-[6-keto-1-[3-[5-[(1-methyl-4-piperidyl)methoxy]pyrimidin-2-yl]benzyl]pyridazin-3-yl]benzonitrile

> <PUBCHEM_IUPAC_INCHI>
InChI=1S/C29H28N6O2/c1-34-12-10-21(11-13-34)20-37-26-17-31-29(32-18-26)25-7-3-5-23(15-25)19-35-28(36)9-8-27(33-35)24-6-2-4-22(14-24)16-30/h2-9,14-15,17-18,21H,10-13,19-20H2,1H3

> <PUBCHEM_IUPAC_INCHIKEY>
AHYMHWXQRWRBKT-UHFFFAOYSA-N

> <PUBCHEM_XLOGP3_AA>
3.4

> <PUBCHEM_EXACT_MASS>
492.22737416

> <PUBCHEM_MOLECULAR_FORMULA>
C29H28N6O2

> <PUBCHEM_MOLECULAR_WEIGHT>
492.6

> <PUBCHEM_OPENEYE_CAN_SMILES>
CN1CCC(CC1)COC2=CN=C(N=C2)C3=CC=CC(=C3)CN4C(=O)C=CC(=N4)C5=CC=CC(=C5)C#N

> <PUBCHEM_OPENEYE_ISO_SMILES>
CN1CCC(CC1)COC2=CN=C(N=C2)C3=CC=CC(=C3)CN4C(=O)C=CC(=N4)C5=CC=CC(=C5)C#N

> <PUBCHEM_CACTVS_TPSA>
94.7

> <PUBCHEM_MONOISOTOPIC_WEIGHT>
492.22737416

> <PUBCHEM_TOTAL_CHARGE>
0

> <PUBCHEM_HEAVY_ATOM_COUNT>
37

> <PUBCHEM_ATOM_DEF_STEREO_COUNT>
0

> <PUBCHEM_ATOM_UDEF_STEREO_COUNT>
0

> <PUBCHEM_BOND_DEF_STEREO_COUNT>
0

> <PUBCHEM_BOND_UDEF_STEREO_COUNT>
0

> <PUBCHEM_ISOTOPIC_ATOM_COUNT>
0

> <PUBCHEM_COMPONENT_COUNT>
1

> <PUBCHEM_CACTVS_TAUTO_COUNT>
-1

> <PUBCHEM_COORDINATE_TYPE>
1
5
255

> <PUBCHEM_BONDANNOTATIONS>
16  17  8
16  18  8
20  23  8
20  24  8
21  23  8
21  25  8
24  26  8
25  26  8
27  30  8
28  31  8
29  32  8
29  33  8
30  31  8
32  34  8
33  35  8
34  36  8
35  36  8
4  17  8
4  19  8
5  18  8
5  19  8
6  28  8
6  7  8
7  27  8

$$$$
25062766
  -OEChem-11282412102D

 53 56  0     0  0  0  0  0  0999 V2000
   16.7224    2.5000    0.0000 O   0  0  0  0  0  0  0  0  0  0  0  0
    5.4641   -3.0000    0.0000 O   0  0  0  0  0  0  0  0  0  0  0  0
   14.9904    1.5000    0.0000 N   0  0  0  0  0  0  0  0  0  0  0  0
   11.5263   -0.5000    0.0000 N   0  0  0  0  0  0  0  0  0  0  0  0
    9.7942   -0.5000    0.0000 N   0  0  0  0  0  0  0  0  0  0  0  0
   10.6603    1.0000    0.0000 N   0  0  0  0  0  0  0  0  0  0  0  0
    4.5981   -1.5000    0.0000 N   0  0  0  0  0  0  0  0  0  0  0  0
    2.0000   -1.0000    0.0000 N   0  0  0  0  0  0  0  0  0  0  0  0
   14.9904    2.5000    0.0000 C   0  0  0  0  0  0  0  0  0  0  0  0
   15.8564    1.0000    0.0000 C   0  0  0  0  0  0  0  0  0  0  0  0
   15.8564    3.0000    0.0000 C   0  0  0  0  0  0  0  0  0  0  0  0
   16.7224    1.5000    0.0000 C   0  0  0  0  0  0  0  0  0  0  0  0
   14.1244    1.0000    0.0000 C   0  0  0  0  0  0  0  0  0  0  0  0
   14.1244   -0.0000    0.0000 C   0  0  0  0  0  0  0  0  0  0  0  0
   13.2583    1.5000    0.0000 C   0  0  0  0  0  0  0  0  0  0  0  0
   12.3923   -0.0000    0.0000 C   0  0  0  0  0  0  0  0  0  0  0  0
   13.2583   -0.5000    0.0000 C   0  0  0  0  0  0  0  0  0  0  0  0
   12.3923    1.0000    0.0000 C   0  0  0  0  0  0  0  0  0  0  0  0
   10.6603   -0.0000    0.0000 C   0  0  0  0  0  0  0  0  0  0  0  0
    8.0622   -0.5000    0.0000 C   0  0  0  0  0  0  0  0  0  0  0  0
    8.9282    0.0000    0.0000 C   0  0  0  0  0  0  0  0  0  0  0  0
    8.0622   -1.5000    0.0000 C   0  0  0  0  0  0  0  0  0  0  0  0
    7.1962    0.0000    0.0000 C   0  0  0  0  0  0  0  0  0  0  0  0
    6.3301   -1.5000    0.0000 C   0  0  0  0  0  0  0  0  0  0  0  0
    8.9282    1.0000    0.0000 C   0  0  0  0  0  0  0  0  0  0  0  0
    7.1962   -2.0000    0.0000 C   0  0  0  0  0  0  0  0  0  0  0  0
    6.3301   -0.5000    0.0000 C   0  0  0  0  0  0  0  0  0  0  0  0
    9.7942    1.5000    0.0000 C   0  0  0  0  0  0  0  0  0  0  0  0
    5.4641   -2.0000    0.0000 C   0  0  0  0  0  0  0  0  0  0  0  0
    3.7320   -2.0000    0.0000 C   0  0  0  0  0  0  0  0  0  0  0  0
    2.8660   -1.5000    0.0000 C   0  0  0  0  0  0  0  0  0  0  0  0
   14.7783    3.0826    0.0000 H   0  0  0  0  0  0  0  0  0  0  0  0
   14.3798    2.3923    0.0000 H   0  0  0  0  0  0  0  0  0  0  0  0
   15.4579    0.5251    0.0000 H   0  0  0  0  0  0  0  0  0  0  0  0
   16.2549    0.5251    0.0000 H   0  0  0  0  0  0  0  0  0  0  0  0
   16.2549    3.4750    0.0000 H   0  0  0  0  0  0  0  0  0  0  0  0
   15.4579    3.4750    0.0000 H   0  0  0  0  0  0  0  0  0  0  0  0
   16.9345    0.9174    0.0000 H   0  0  0  0  0  0  0  0  0  0  0  0
   17.3330    1.6077    0.0000 H   0  0  0  0  0  0  0  0  0  0  0  0
   14.6613   -0.3100    0.0000 H   0  0  0  0  0  0  0  0  0  0  0  0
   13.2583    2.1200    0.0000 H   0  0  0  0  0  0  0  0  0  0  0  0
   13.2583   -1.1200    0.0000 H   0  0  0  0  0  0  0  0  0  0  0  0
   11.8554    1.3100    0.0000 H   0  0  0  0  0  0  0  0  0  0  0  0
   11.5263   -1.1200    0.0000 H   0  0  0  0  0  0  0  0  0  0  0  0
    8.5991   -1.8100    0.0000 H   0  0  0  0  0  0  0  0  0  0  0  0
    7.1962    0.6200    0.0000 H   0  0  0  0  0  0  0  0  0  0  0  0
    8.3913    1.3100    0.0000 H   0  0  0  0  0  0  0  0  0  0  0  0
    7.1962   -2.6200    0.0000 H   0  0  0  0  0  0  0  0  0  0  0  0
    5.7932   -0.1900    0.0000 H   0  0  0  0  0  0  0  0  0  0  0  0
    9.7942    2.1200    0.0000 H   0  0  0  0  0  0  0  0  0  0  0  0
    4.5981   -0.8800    0.0000 H   0  0  0  0  0  0  0  0  0  0  0  0
    3.3335   -2.4750    0.0000 H   0  0  0  0  0  0  0  0  0  0  0  0
    4.1306   -2.4750    0.0000 H   0  0  0  0  0  0  0  0  0  0  0  0
  1 11  1  0  0  0  0
  1 12  1  0  0  0  0
  2 29  2  0  0  0  0
  3  9  1  0  0  0  0
  3 10  1  0  0  0  0
  3 13  1  0  0  0  0
  4 16  1  0  0  0  0
  4 19  1  0  0  0  0
  4 44  1  0  0  0  0
  5 19  1  0  0  0  0
  5 21  2  0  0  0  0
  6 19  2  0  0  0  0
  6 28  1  0  0  0  0
  7 29  1  0  0  0  0
  7 30  1  0  0  0  0
  7 51  1  0  0  0  0
  8 31  3  0  0  0  0
  9 11  1  0  0  0  0
  9 32  1  0  0  0  0
  9 33  1  0  0  0  0
 10 12  1  0  0  0  0
 10 34  1  0  0  0  0
 10 35  1  0  0  0  0
 11 36  1  0  0  0  0
 11 37  1  0  0  0  0
 12 38  1  0  0  0  0
 12 39  1  0  0  0  0
 13 14  2  0  0  0  0
 13 15  1  0  0  0  0
 14 17  1  0  0  0  0
 14 40  1  0  0  0  0
 15 18  2  0  0  0  0
 15 41  1  0  0  0  0
 16 17  2  0  0  0  0
 16 18  1  0  0  0  0
 17 42  1  0  0  0  0
 18 43  1  0  0  0  0
 20 21  1  0  0  0  0
 20 22  2  0  0  0  0
 20 23  1  0  0  0  0
 21 25  1  0  0  0  0
 22 26  1  0  0  0  0
 22 45  1  0  0  0  0
 23 27  2  0  0  0  0
 23 46  1  0  0  0  0
 24 26  2  0  0  0  0
 24 27  1  0  0  0  0
 24 29  1  0  0  0  0
 25 28  2  0  0  0  0
 25 47  1  0  0  0  0
 26 48  1  0  0  0  0
 27 49  1  0  0  0  0
 28 50  1  0  0  0  0
 30 31  1  0  0  0  0
 30 52  1  0  0  0  0
 30 53  1  0  0  0  0
M  END
> <PUBCHEM_COMPOUND_CID>
25062766

> <PUBCHEM_COMPOUND_CANONICALIZED>
1

> <PUBCHEM_CACTVS_COMPLEXITY>
615

> <PUBCHEM_CACTVS_HBOND_ACCEPTOR>
7

> <PUBCHEM_CACTVS_HBOND_DONOR>
2

> <PUBCHEM_CACTVS_ROTATABLE_BOND>
6

> <PUBCHEM_CACTVS_SUBSKEYS>
AAADceB7sAAAAAAAAAAAAAAAAAAAAAAAAAA8eIEAAAAAAAAB0AAAHgAQAAAADAjhngY90JfIFAC4BzV3dACCgCk1AqAJ2KE4ZNiKKLLA3dGHJQholgLYyacYiMCOQACAAAAAAACAAQAAAAAAAAAAAAAAAA==

> <PUBCHEM_IUPAC_OPENEYE_NAME>
N-(cyanomethyl)-4-[2-(4-morpholinoanilino)pyrimidin-4-yl]benzamide

> <PUBCHEM_IUPAC_CAS_NAME>
N-(cyanomethyl)-4-[2-[4-(4-morpholinyl)anilino]-4-pyrimidinyl]benzamide

> <PUBCHEM_IUPAC_NAME_MARKUP>
<I>N</I>-(cyanomethyl)-4-[2-(4-morpholin-4-ylanilino)pyrimidin-4-yl]benzamide

> <PUBCHEM_IUPAC_NAME>
N-(cyanomethyl)-4-[2-(4-morpholin-4-ylanilino)pyrimidin-4-yl]benzamide

> <PUBCHEM_IUPAC_SYSTEMATIC_NAME>
N-(cyanomethyl)-4-[2-[(4-morpholin-4-ylphenyl)amino]pyrimidin-4-yl]benzamide

> <PUBCHEM_IUPAC_TRADITIONAL_NAME>
N-(cyanomethyl)-4-[2-(4-morpholinoanilino)pyrimidin-4-yl]benzamide

> <PUBCHEM_IUPAC_INCHI>
InChI=1S/C23H22N6O2/c24-10-12-25-22(30)18-3-1-17(2-4-18)21-9-11-26-23(28-21)27-19-5-7-20(8-6-19)29-13-15-31-16-14-29/h1-9,11H,12-16H2,(H,25,30)(H,26,27,28)

> <PUBCHEM_IUPAC_INCHIKEY>
ZVHNDZWQTBEVRY-UHFFFAOYSA-N

> <PUBCHEM_XLOGP3_AA>
2.6

> <PUBCHEM_EXACT_MASS>
414.18042397

> <PUBCHEM_MOLECULAR_FORMULA>
C23H22N6O2

> <PUBCHEM_MOLECULAR_WEIGHT>
414.5

> <PUBCHEM_OPENEYE_CAN_SMILES>
C1COCCN1C2=CC=C(C=C2)NC3=NC=CC(=N3)C4=CC=C(C=C4)C(=O)NCC#N

> <PUBCHEM_OPENEYE_ISO_SMILES>
C1COCCN1C2=CC=C(C=C2)NC3=NC=CC(=N3)C4=CC=C(C=C4)C(=O)NCC#N

> <PUBCHEM_CACTVS_TPSA>
103

> <PUBCHEM_MONOISOTOPIC_WEIGHT>
414.18042397

> <PUBCHEM_TOTAL_CHARGE>
0

> <PUBCHEM_HEAVY_ATOM_COUNT>
31

> <PUBCHEM_ATOM_DEF_STEREO_COUNT>
0

> <PUBCHEM_ATOM_UDEF_STEREO_COUNT>
0

> <PUBCHEM_BOND_DEF_STEREO_COUNT>
0

> <PUBCHEM_BOND_UDEF_STEREO_COUNT>
0

> <PUBCHEM_ISOTOPIC_ATOM_COUNT>
0

> <PUBCHEM_COMPONENT_COUNT>
1

> <PUBCHEM_CACTVS_TAUTO_COUNT>
-1

> <PUBCHEM_COORDINATE_TYPE>
1
5
255

> <PUBCHEM_BONDANNOTATIONS>
13  14  8
13  15  8
14  17  8
15  18  8
16  17  8
16  18  8
20  22  8
20  23  8
21  25  8
22  26  8
23  27  8
24  26  8
24  27  8
25  28  8
5  19  8
5  21  8
6  19  8
6  28  8

$$$$
129269915
  -OEChem-11282412102D

 55 57  0     1  0  0  0  0  0999 V2000
   12.8257    1.4467    0.0000 F   0  0  0  0  0  0  0  0  0  0  0  0
   12.3189    0.1265    0.0000 F   0  0  0  0  0  0  0  0  0  0  0  0
   10.9986    0.6333    0.0000 F   0  0  0  0  0  0  0  0  0  0  0  0
    6.3301   -4.7783    0.0000 F   0  0  0  0  0  0  0  0  0  0  0  0
    7.3385    3.0763    0.0000 O   0  0  0  0  0  0  0  0  0  0  0  0
    2.8660   -2.7783    0.0000 O   0  0  0  0  0  0  0  0  0  0  0  0
    3.7320   -1.2783    0.0000 O   0  0  0  0  0  0  0  0  0  0  0  0
   10.5109    2.0581    0.0000 N   0  0  0  0  0  0  0  0  0  0  0  0
    9.8418    1.3149    0.0000 N   0  0  0  0  0  0  0  0  0  0  0  0
   10.4176    3.8376    0.0000 N   0  0  0  0  0  0  0  0  0  0  0  0
    5.4641   -1.2783    0.0000 N   0  0  0  0  0  0  0  0  0  0  0  0
    8.4975    4.3635    0.0000 N   0  0  0  0  0  0  0  0  0  0  0  0
   11.5054    1.9536    0.0000 C   0  0  2  0  0  0  0  0  0  0  0  0
   10.0109    2.9241    0.0000 C   0  0  0  0  0  0  0  0  0  0  0  0
    8.9282    1.7217    0.0000 C   0  0  0  0  0  0  0  0  0  0  0  0
    9.0327    2.7162    0.0000 C   0  0  0  0  0  0  0  0  0  0  0  0
    8.0622    1.2217    0.0000 C   0  0  0  0  0  0  0  0  0  0  0  0
   11.9121    1.0400    0.0000 C   0  0  0  0  0  0  0  0  0  0  0  0
   12.0932    2.7626    0.0000 C   0  0  0  0  0  0  0  0  0  0  0  0
    7.1962    1.7217    0.0000 C   0  0  0  0  0  0  0  0  0  0  0  0
    8.0622    0.2217    0.0000 C   0  0  0  0  0  0  0  0  0  0  0  0
    6.3301    0.2217    0.0000 C   0  0  0  0  0  0  0  0  0  0  0  0
    8.2896    3.3853    0.0000 C   0  0  0  0  0  0  0  0  0  0  0  0
    6.3301    1.2217    0.0000 C   0  0  0  0  0  0  0  0  0  0  0  0
    7.1962   -0.2783    0.0000 C   0  0  0  0  0  0  0  0  0  0  0  0
    5.4641   -0.2783    0.0000 C   0  0  0  0  0  0  0  0  0  0  0  0
    4.5981   -1.7783    0.0000 C   0  0  0  0  0  0  0  0  0  0  0  0
    4.5981   -2.7783    0.0000 C   0  0  0  0  0  0  0  0  0  0  0  0
    3.7320   -3.2783    0.0000 C   0  0  0  0  0  0  0  0  0  0  0  0
    5.4641   -3.2783    0.0000 C   0  0  0  0  0  0  0  0  0  0  0  0
    3.7320   -4.2783    0.0000 C   0  0  0  0  0  0  0  0  0  0  0  0
    5.4641   -4.2783    0.0000 C   0  0  0  0  0  0  0  0  0  0  0  0
    4.5981   -4.7783    0.0000 C   0  0  0  0  0  0  0  0  0  0  0  0
    2.0000   -3.2783    0.0000 C   0  0  0  0  0  0  0  0  0  0  0  0
   11.2532    2.5200    0.0000 H   0  0  0  0  0  0  0  0  0  0  0  0
   12.5948    2.3981    0.0000 H   0  0  0  0  0  0  0  0  0  0  0  0
   12.4576    3.2642    0.0000 H   0  0  0  0  0  0  0  0  0  0  0  0
   11.5916    3.1270    0.0000 H   0  0  0  0  0  0  0  0  0  0  0  0
    7.1962    2.3417    0.0000 H   0  0  0  0  0  0  0  0  0  0  0  0
    8.5991   -0.0883    0.0000 H   0  0  0  0  0  0  0  0  0  0  0  0
    5.7932    1.5317    0.0000 H   0  0  0  0  0  0  0  0  0  0  0  0
    7.1962   -0.8983    0.0000 H   0  0  0  0  0  0  0  0  0  0  0  0
   11.0342    3.9025    0.0000 H   0  0  0  0  0  0  0  0  0  0  0  0
   10.0532    4.3392    0.0000 H   0  0  0  0  0  0  0  0  0  0  0  0
    5.2520    0.3043    0.0000 H   0  0  0  0  0  0  0  0  0  0  0  0
    4.8535   -0.3860    0.0000 H   0  0  0  0  0  0  0  0  0  0  0  0
    6.0010   -1.5883    0.0000 H   0  0  0  0  0  0  0  0  0  0  0  0
    8.0368    4.7783    0.0000 H   0  0  0  0  0  0  0  0  0  0  0  0
    9.0872    4.5551    0.0000 H   0  0  0  0  0  0  0  0  0  0  0  0
    6.0010   -2.9683    0.0000 H   0  0  0  0  0  0  0  0  0  0  0  0
    3.1951   -4.5883    0.0000 H   0  0  0  0  0  0  0  0  0  0  0  0
    4.5981   -5.3983    0.0000 H   0  0  0  0  0  0  0  0  0  0  0  0
    1.6900   -2.7414    0.0000 H   0  0  0  0  0  0  0  0  0  0  0  0
    1.4631   -3.5883    0.0000 H   0  0  0  0  0  0  0  0  0  0  0  0
    2.3100   -3.8153    0.0000 H   0  0  0  0  0  0  0  0  0  0  0  0
  1 18  1  0  0  0  0
  2 18  1  0  0  0  0
  3 18  1  0  0  0  0
  4 32  1  0  0  0  0
  5 23  2  0  0  0  0
  6 29  1  0  0  0  0
  6 34  1  0  0  0  0
  7 27  2  0  0  0  0
  8  9  1  0  0  0  0
  8 13  1  0  0  0  0
  8 14  1  0  0  0  0
  9 15  2  0  0  0  0
 10 14  1  0  0  0  0
 10 43  1  0  0  0  0
 10 44  1  0  0  0  0
 11 26  1  0  0  0  0
 11 27  1  0  0  0  0
 11 47  1  0  0  0  0
 12 23  1  0  0  0  0
 12 48  1  0  0  0  0
 12 49  1  0  0  0  0
 13 18  1  0  0  0  0
 13 19  1  1  0  0  0
 13 35  1  0  0  0  0
 14 16  2  0  0  0  0
 15 16  1  0  0  0  0
 15 17  1  0  0  0  0
 16 23  1  0  0  0  0
 17 20  2  0  0  0  0
 17 21  1  0  0  0  0
 19 36  1  0  0  0  0
 19 37  1  0  0  0  0
 19 38  1  0  0  0  0
 20 24  1  0  0  0  0
 20 39  1  0  0  0  0
 21 25  2  0  0  0  0
 21 40  1  0  0  0  0
 22 24  2  0  0  0  0
 22 25  1  0  0  0  0
 22 26  1  0  0  0  0
 24 41  1  0  0  0  0
 25 42  1  0  0  0  0
 26 45  1  0  0  0  0
 26 46  1  0  0  0  0
 27 28  1  0  0  0  0
 28 29  2  0  0  0  0
 28 30  1  0  0  0  0
 29 31  1  0  0  0  0
 30 32  2  0  0  0  0
 30 50  1  0  0  0  0
 31 33  2  0  0  0  0
 31 51  1  0  0  0  0
 32 33  1  0  0  0  0
 33 52  1  0  0  0  0
 34 53  1  0  0  0  0
 34 54  1  0  0  0  0
 34 55  1  0  0  0  0
M  END
> <PUBCHEM_COMPOUND_CID>
129269915

> <PUBCHEM_COMPOUND_CANONICALIZED>
1

> <PUBCHEM_CACTVS_COMPLEXITY>
719

> <PUBCHEM_CACTVS_HBOND_ACCEPTOR>
9

> <PUBCHEM_CACTVS_HBOND_DONOR>
3

> <PUBCHEM_CACTVS_ROTATABLE_BOND>
7

> <PUBCHEM_CACTVS_SUBSKEYS>
AAADceB7scAAAAAAAAAAAAAAAAAAAWAAAAAwYAAAAAAAAAAB0AAAHwAYAAAADCzBnh4ztpLIBACqAydydACSDAMloAAc2KEuTNiMJr7E9duEteh27hPI6ceYyOCOQAAAAAAIAACAAAAAABAAAAAAAAAAAA==

> <PUBCHEM_IUPAC_OPENEYE_NAME>
5-amino-3-[4-[[(5-fluoro-2-methoxy-benzoyl)amino]methyl]phenyl]-1-[(1S)-2,2,2-trifluoro-1-methyl-ethyl]pyrazole-4-carboxamide

> <PUBCHEM_IUPAC_CAS_NAME>
5-amino-3-[4-[[[(5-fluoro-2-methoxyphenyl)-oxomethyl]amino]methyl]phenyl]-1-[(2S)-1,1,1-trifluoropropan-2-yl]-4-pyrazolecarboxamide

> <PUBCHEM_IUPAC_NAME_MARKUP>
5-amino-3-[4-[[(5-fluoro-2-methoxybenzoyl)amino]methyl]phenyl]-1-[(2<I>S</I>)-1,1,1-trifluoropropan-2-yl]pyrazole-4-carboxamide

> <PUBCHEM_IUPAC_NAME>
5-amino-3-[4-[[(5-fluoro-2-methoxybenzoyl)amino]methyl]phenyl]-1-[(2S)-1,1,1-trifluoropropan-2-yl]pyrazole-4-carboxamide

> <PUBCHEM_IUPAC_SYSTEMATIC_NAME>
5-azanyl-3-[4-[[(5-fluoranyl-2-methoxy-phenyl)carbonylamino]methyl]phenyl]-1-[(2S)-1,1,1-tris(fluoranyl)propan-2-yl]pyrazole-4-carboxamide

> <PUBCHEM_IUPAC_TRADITIONAL_NAME>
5-amino-3-[4-[[(5-fluoro-2-methoxy-benzoyl)amino]methyl]phenyl]-1-[(1S)-2,2,2-trifluoro-1-methyl-ethyl]pyrazole-4-carboxamide

> <PUBCHEM_IUPAC_INCHI>
InChI=1S/C22H21F4N5O3/c1-11(22(24,25)26)31-19(27)17(20(28)32)18(30-31)13-5-3-12(4-6-13)10-29-21(33)15-9-14(23)7-8-16(15)34-2/h3-9,11H,10,27H2,1-2H3,(H2,28,32)(H,29,33)/t11-/m0/s1

> <PUBCHEM_IUPAC_INCHIKEY>
FWZAWAUZXYCBKZ-NSHDSACASA-N

> <PUBCHEM_XLOGP3_AA>
3.3

> <PUBCHEM_EXACT_MASS>
479.15805220

> <PUBCHEM_MOLECULAR_FORMULA>
C22H21F4N5O3

> <PUBCHEM_MOLECULAR_WEIGHT>
479.4

> <PUBCHEM_OPENEYE_CAN_SMILES>
CC(C(F)(F)F)N1C(=C(C(=N1)C2=CC=C(C=C2)CNC(=O)C3=C(C=CC(=C3)F)OC)C(=O)N)N

> <PUBCHEM_OPENEYE_ISO_SMILES>
C[C@@H](C(F)(F)F)N1C(=C(C(=N1)C2=CC=C(C=C2)CNC(=O)C3=C(C=CC(=C3)F)OC)C(=O)N)N

> <PUBCHEM_CACTVS_TPSA>
125

> <PUBCHEM_MONOISOTOPIC_WEIGHT>
479.15805220

> <PUBCHEM_TOTAL_CHARGE>
0

> <PUBCHEM_HEAVY_ATOM_COUNT>
34

> <PUBCHEM_ATOM_DEF_STEREO_COUNT>
1

> <PUBCHEM_ATOM_UDEF_STEREO_COUNT>
0

> <PUBCHEM_BOND_DEF_STEREO_COUNT>
0

> <PUBCHEM_BOND_UDEF_STEREO_COUNT>
0

> <PUBCHEM_ISOTOPIC_ATOM_COUNT>
0

> <PUBCHEM_COMPONENT_COUNT>
1

> <PUBCHEM_CACTVS_TAUTO_COUNT>
-1

> <PUBCHEM_COORDINATE_TYPE>
1
5
255

> <PUBCHEM_BONDANNOTATIONS>
13  19  5
14  16  8
15  16  8
17  20  8
17  21  8
20  24  8
21  25  8
22  24  8
22  25  8
28  29  8
28  30  8
29  31  8
30  32  8
31  33  8
32  33  8
8  14  8
8  9  8
9  15  8

$$$$
6445562
  -OEChem-11282412102D

 56 58  0     0  0  0  0  0  0999 V2000
   14.1405    1.2874    0.0000 Cl  0  0  0  0  0  0  0  0  0  0  0  0
   14.1174    3.2873    0.0000 F   0  0  0  0  0  0  0  0  0  0  0  0
    7.1962   -1.7873    0.0000 O   0  0  0  0  0  0  0  0  0  0  0  0
    6.3301   -1.2873    0.0000 O   0  0  0  0  0  0  0  0  0  0  0  0
   10.6766    1.2473    0.0000 N   0  0  0  0  0  0  0  0  0  0  0  0
    7.1962    0.2127    0.0000 N   0  0  0  0  0  0  0  0  0  0  0  0
   10.6882   -1.8219    0.0000 N   0  0  0  0  0  0  0  0  0  0  0  0
    2.8660   -0.2873    0.0000 N   0  0  0  0  0  0  0  0  0  0  0  0
   13.3224    0.7402    0.0000 N   0  0  0  0  0  0  0  0  0  0  0  0
    9.7942   -0.2873    0.0000 C   0  0  0  0  0  0  0  0  0  0  0  0
    9.7942   -1.2873    0.0000 C   0  0  0  0  0  0  0  0  0  0  0  0
   10.6882    0.2474    0.0000 C   0  0  0  0  0  0  0  0  0  0  0  0
    8.0622   -0.2873    0.0000 C   0  0  0  0  0  0  0  0  0  0  0  0
    8.9282    0.2127    0.0000 C   0  0  0  0  0  0  0  0  0  0  0  0
    8.0622   -1.2873    0.0000 C   0  0  0  0  0  0  0  0  0  0  0  0
    8.9282   -1.7873    0.0000 C   0  0  0  0  0  0  0  0  0  0  0  0
   11.5942   -0.2664    0.0000 C   0  0  0  0  0  0  0  0  0  0  0  0
   11.5942   -1.3081    0.0000 C   0  0  0  0  0  0  0  0  0  0  0  0
   11.5368    1.7573    0.0000 C   0  0  0  0  0  0  0  0  0  0  0  0
    6.3301   -0.2873    0.0000 C   0  0  0  0  0  0  0  0  0  0  0  0
    7.1962   -2.7873    0.0000 C   0  0  0  0  0  0  0  0  0  0  0  0
    3.7320    0.2127    0.0000 C   0  0  0  0  0  0  0  0  0  0  0  0
   12.4085    1.2674    0.0000 C   0  0  0  0  0  0  0  0  0  0  0  0
   11.5252    2.7572    0.0000 C   0  0  0  0  0  0  0  0  0  0  0  0
    5.4641    0.2127    0.0000 C   0  0  0  0  0  0  0  0  0  0  0  0
    4.5981   -0.2873    0.0000 C   0  0  0  0  0  0  0  0  0  0  0  0
   12.4583    0.2369    0.0000 C   0  0  0  0  0  0  0  0  0  0  0  0
   13.2687    1.7773    0.0000 C   0  0  0  0  0  0  0  0  0  0  0  0
   12.3854    3.2672    0.0000 C   0  0  0  0  0  0  0  0  0  0  0  0
    6.3301   -3.2873    0.0000 C   0  0  0  0  0  0  0  0  0  0  0  0
   13.2572    2.7773    0.0000 C   0  0  0  0  0  0  0  0  0  0  0  0
    2.0000    0.2127    0.0000 C   0  0  0  0  0  0  0  0  0  0  0  0
    2.8660   -1.2873    0.0000 C   0  0  0  0  0  0  0  0  0  0  0  0
    8.9282    0.8327    0.0000 H   0  0  0  0  0  0  0  0  0  0  0  0
    8.9282   -2.4073    0.0000 H   0  0  0  0  0  0  0  0  0  0  0  0
   10.1361    1.5511    0.0000 H   0  0  0  0  0  0  0  0  0  0  0  0
    7.1962    0.8327    0.0000 H   0  0  0  0  0  0  0  0  0  0  0  0
   12.1300   -1.6201    0.0000 H   0  0  0  0  0  0  0  0  0  0  0  0
    7.4082   -3.3699    0.0000 H   0  0  0  0  0  0  0  0  0  0  0  0
    7.8067   -2.6796    0.0000 H   0  0  0  0  0  0  0  0  0  0  0  0
    4.1306    0.6877    0.0000 H   0  0  0  0  0  0  0  0  0  0  0  0
    3.3335    0.6877    0.0000 H   0  0  0  0  0  0  0  0  0  0  0  0
   12.4157    0.6474    0.0000 H   0  0  0  0  0  0  0  0  0  0  0  0
   10.9847    3.0610    0.0000 H   0  0  0  0  0  0  0  0  0  0  0  0
    5.4641    0.8327    0.0000 H   0  0  0  0  0  0  0  0  0  0  0  0
    4.5981   -0.9073    0.0000 H   0  0  0  0  0  0  0  0  0  0  0  0
   12.3782    3.8872    0.0000 H   0  0  0  0  0  0  0  0  0  0  0  0
    6.0201   -2.7503    0.0000 H   0  0  0  0  0  0  0  0  0  0  0  0
    5.7932   -3.5973    0.0000 H   0  0  0  0  0  0  0  0  0  0  0  0
    6.6401   -3.8242    0.0000 H   0  0  0  0  0  0  0  0  0  0  0  0
    2.3100    0.7497    0.0000 H   0  0  0  0  0  0  0  0  0  0  0  0
    1.4631    0.5227    0.0000 H   0  0  0  0  0  0  0  0  0  0  0  0
    1.6900   -0.3242    0.0000 H   0  0  0  0  0  0  0  0  0  0  0  0
    2.2460   -1.2873    0.0000 H   0  0  0  0  0  0  0  0  0  0  0  0
    2.8660   -1.9073    0.0000 H   0  0  0  0  0  0  0  0  0  0  0  0
    3.4860   -1.2873    0.0000 H   0  0  0  0  0  0  0  0  0  0  0  0
  1 28  1  0  0  0  0
  2 31  1  0  0  0  0
  3 15  1  0  0  0  0
  3 21  1  0  0  0  0
  4 20  2  0  0  0  0
  5 12  1  0  0  0  0
  5 19  1  0  0  0  0
  5 36  1  0  0  0  0
  6 13  1  0  0  0  0
  6 20  1  0  0  0  0
  6 37  1  0  0  0  0
  7 11  1  0  0  0  0
  7 18  2  0  0  0  0
  8 22  1  0  0  0  0
  8 32  1  0  0  0  0
  8 33  1  0  0  0  0
  9 27  3  0  0  0  0
 10 11  1  0  0  0  0
 10 12  1  0  0  0  0
 10 14  2  0  0  0  0
 11 16  2  0  0  0  0
 12 17  2  0  0  0  0
 13 14  1  0  0  0  0
 13 15  2  0  0  0  0
 14 34  1  0  0  0  0
 15 16  1  0  0  0  0
 16 35  1  0  0  0  0
 17 18  1  0  0  0  0
 17 27  1  0  0  0  0
 18 38  1  0  0  0  0
 19 23  2  0  0  0  0
 19 24  1  0  0  0  0
 20 25  1  0  0  0  0
 21 30  1  0  0  0  0
 21 39  1  0  0  0  0
 21 40  1  0  0  0  0
 22 26  1  0  0  0  0
 22 41  1  0  0  0  0
 22 42  1  0  0  0  0
 23 28  1  0  0  0  0
 23 43  1  0  0  0  0
 24 29  2  0  0  0  0
 24 44  1  0  0  0  0
 25 26  2  0  0  0  0
 25 45  1  0  0  0  0
 26 46  1  0  0  0  0
 28 31  2  0  0  0  0
 29 31  1  0  0  0  0
 29 47  1  0  0  0  0
 30 48  1  0  0  0  0
 30 49  1  0  0  0  0
 30 50  1  0  0  0  0
 32 51  1  0  0  0  0
 32 52  1  0  0  0  0
 32 53  1  0  0  0  0
 33 54  1  0  0  0  0
 33 55  1  0  0  0  0
 33 56  1  0  0  0  0
M  END
> <PUBCHEM_COMPOUND_CID>
6445562

> <PUBCHEM_COMPOUND_CANONICALIZED>
1

> <PUBCHEM_CACTVS_COMPLEXITY>
729

> <PUBCHEM_CACTVS_HBOND_ACCEPTOR>
7

> <PUBCHEM_CACTVS_HBOND_DONOR>
2

> <PUBCHEM_CACTVS_ROTATABLE_BOND>
8

> <PUBCHEM_CACTVS_SUBSKEYS>
AAADceB7sQAEAAAAAAAAAAAAAAAAAAAAAAA8YIAAAAAAAACx9AAAHwIQAAAADA7hni4+xvPIFAC4BzV3VACiiCAxJyAI2CA/btgOpuLF89uHPCjm1BnY6Y+Q0OMOIACAQgICEABAAQCEBAQgAAAAAAAAAA==

> <PUBCHEM_IUPAC_OPENEYE_NAME>
(E)-N-[4-(3-chloro-4-fluoro-anilino)-3-cyano-7-ethoxy-6-quinolyl]-4-(dimethylamino)but-2-enamide

> <PUBCHEM_IUPAC_CAS_NAME>
(E)-N-[4-(3-chloro-4-fluoroanilino)-3-cyano-7-ethoxy-6-quinolinyl]-4-(dimethylamino)-2-butenamide

> <PUBCHEM_IUPAC_NAME_MARKUP>
(<I>E</I>)-<I>N</I>-[4-(3-chloro-4-fluoroanilino)-3-cyano-7-ethoxyquinolin-6-yl]-4-(dimethylamino)but-2-enamide

> <PUBCHEM_IUPAC_NAME>
(E)-N-[4-(3-chloro-4-fluoroanilino)-3-cyano-7-ethoxyquinolin-6-yl]-4-(dimethylamino)but-2-enamide

> <PUBCHEM_IUPAC_SYSTEMATIC_NAME>
(E)-N-[4-[(3-chloranyl-4-fluoranyl-phenyl)amino]-3-cyano-7-ethoxy-quinolin-6-yl]-4-(dimethylamino)but-2-enamide

> <PUBCHEM_IUPAC_TRADITIONAL_NAME>
(E)-N-[4-(3-chloro-4-fluoro-anilino)-3-cyano-7-ethoxy-6-quinolyl]-4-(dimethylamino)but-2-enamide

> <PUBCHEM_IUPAC_INCHI>
InChI=1S/C24H23ClFN5O2/c1-4-33-22-12-20-17(11-21(22)30-23(32)6-5-9-31(2)3)24(15(13-27)14-28-20)29-16-7-8-19(26)18(25)10-16/h5-8,10-12,14H,4,9H2,1-3H3,(H,28,29)(H,30,32)/b6-5+

> <PUBCHEM_IUPAC_INCHIKEY>
WVUNYSQLFKLYNI-AATRIKPKSA-N

> <PUBCHEM_XLOGP3_AA>
4.5

> <PUBCHEM_EXACT_MASS>
467.1524308

> <PUBCHEM_MOLECULAR_FORMULA>
C24H23ClFN5O2

> <PUBCHEM_MOLECULAR_WEIGHT>
467.9

> <PUBCHEM_OPENEYE_CAN_SMILES>
CCOC1=C(C=C2C(=C1)N=CC(=C2NC3=CC(=C(C=C3)F)Cl)C#N)NC(=O)C=CCN(C)C

> <PUBCHEM_OPENEYE_ISO_SMILES>
CCOC1=C(C=C2C(=C1)N=CC(=C2NC3=CC(=C(C=C3)F)Cl)C#N)NC(=O)/C=C/CN(C)C

> <PUBCHEM_CACTVS_TPSA>
90.3

> <PUBCHEM_MONOISOTOPIC_WEIGHT>
467.1524308

> <PUBCHEM_TOTAL_CHARGE>
0

> <PUBCHEM_HEAVY_ATOM_COUNT>
33

> <PUBCHEM_ATOM_DEF_STEREO_COUNT>
0

> <PUBCHEM_ATOM_UDEF_STEREO_COUNT>
0

> <PUBCHEM_BOND_DEF_STEREO_COUNT>
1

> <PUBCHEM_BOND_UDEF_STEREO_COUNT>
0

> <PUBCHEM_ISOTOPIC_ATOM_COUNT>
0

> <PUBCHEM_COMPONENT_COUNT>
1

> <PUBCHEM_CACTVS_TAUTO_COUNT>
-1

> <PUBCHEM_COORDINATE_TYPE>
1
5
255

> <PUBCHEM_BONDANNOTATIONS>
10  11  8
10  12  8
10  14  8
11  16  8
12  17  8
13  14  8
13  15  8
15  16  8
17  18  8
19  23  8
19  24  8
23  28  8
24  29  8
28  31  8
29  31  8
7  11  8
7  18  8

$$$$
6918403
  -OEChem-11282412102D

 43 46  0     1  0  0  0  0  0999 V2000
   10.1279   -2.0530    0.0000 O   0  0  0  0  0  0  0  0  0  0  0  0
    3.7320   -0.0530    0.0000 N   0  0  0  0  0  0  0  0  0  0  0  0
    5.5443   -2.8577    0.0000 N   0  0  0  0  0  0  0  0  0  0  0  0
    2.8660   -1.5530    0.0000 N   0  0  0  0  0  0  0  0  0  0  0  0
    3.7320   -3.0530    0.0000 N   0  0  0  0  0  0  0  0  0  0  0  0
    2.8660    0.4470    0.0000 C   0  0  1  0  0  0  0  0  0  0  0  0
    4.5981   -1.5530    0.0000 C   0  0  0  0  0  0  0  0  0  0  0  0
    3.7320   -1.0530    0.0000 C   0  0  0  0  0  0  0  0  0  0  0  0
    6.1279   -2.0530    0.0000 C   0  0  0  0  0  0  0  0  0  0  0  0
    4.5981   -2.5530    0.0000 C   0  0  0  0  0  0  0  0  0  0  0  0
    2.8660    1.4470    0.0000 C   0  0  0  0  0  0  0  0  0  0  0  0
    5.5443   -1.2482    0.0000 C   0  0  0  0  0  0  0  0  0  0  0  0
    2.0000   -0.0530    0.0000 C   0  0  0  0  0  0  0  0  0  0  0  0
    7.1279   -2.0530    0.0000 C   0  0  0  0  0  0  0  0  0  0  0  0
    2.0000    1.9470    0.0000 C   0  0  0  0  0  0  0  0  0  0  0  0
    3.7320    1.9470    0.0000 C   0  0  0  0  0  0  0  0  0  0  0  0
    7.6279   -2.9190    0.0000 C   0  0  0  0  0  0  0  0  0  0  0  0
    7.6279   -1.1870    0.0000 C   0  0  0  0  0  0  0  0  0  0  0  0
    2.8660   -2.5530    0.0000 C   0  0  0  0  0  0  0  0  0  0  0  0
    2.0000    2.9470    0.0000 C   0  0  0  0  0  0  0  0  0  0  0  0
    3.7320    2.9470    0.0000 C   0  0  0  0  0  0  0  0  0  0  0  0
    2.8660    3.4470    0.0000 C   0  0  0  0  0  0  0  0  0  0  0  0
    8.6279   -2.9190    0.0000 C   0  0  0  0  0  0  0  0  0  0  0  0
    8.6279   -1.1870    0.0000 C   0  0  0  0  0  0  0  0  0  0  0  0
    9.1279   -2.0530    0.0000 C   0  0  0  0  0  0  0  0  0  0  0  0
    2.8660   -0.1730    0.0000 H   0  0  0  0  0  0  0  0  0  0  0  0
    4.2690    0.2570    0.0000 H   0  0  0  0  0  0  0  0  0  0  0  0
    5.7369   -0.6589    0.0000 H   0  0  0  0  0  0  0  0  0  0  0  0
    5.7369   -3.4470    0.0000 H   0  0  0  0  0  0  0  0  0  0  0  0
    1.6900    0.4840    0.0000 H   0  0  0  0  0  0  0  0  0  0  0  0
    1.4631   -0.3630    0.0000 H   0  0  0  0  0  0  0  0  0  0  0  0
    2.3100   -0.5899    0.0000 H   0  0  0  0  0  0  0  0  0  0  0  0
    1.4631    1.6370    0.0000 H   0  0  0  0  0  0  0  0  0  0  0  0
    4.2690    1.6370    0.0000 H   0  0  0  0  0  0  0  0  0  0  0  0
    7.3179   -3.4559    0.0000 H   0  0  0  0  0  0  0  0  0  0  0  0
    7.3179   -0.6500    0.0000 H   0  0  0  0  0  0  0  0  0  0  0  0
    2.3291   -2.8630    0.0000 H   0  0  0  0  0  0  0  0  0  0  0  0
    1.4631    3.2570    0.0000 H   0  0  0  0  0  0  0  0  0  0  0  0
    4.2690    3.2570    0.0000 H   0  0  0  0  0  0  0  0  0  0  0  0
    2.8660    4.0670    0.0000 H   0  0  0  0  0  0  0  0  0  0  0  0
    8.9379   -3.4559    0.0000 H   0  0  0  0  0  0  0  0  0  0  0  0
    8.9379   -0.6500    0.0000 H   0  0  0  0  0  0  0  0  0  0  0  0
   10.4379   -2.5899    0.0000 H   0  0  0  0  0  0  0  0  0  0  0  0
  1 25  1  0  0  0  0
  1 43  1  0  0  0  0
  6  2  1  6  0  0  0
  2  8  1  0  0  0  0
  2 27  1  0  0  0  0
  3  9  1  0  0  0  0
  3 10  1  0  0  0  0
  3 29  1  0  0  0  0
  4  8  2  0  0  0  0
  4 19  1  0  0  0  0
  5 10  1  0  0  0  0
  5 19  2  0  0  0  0
  6 11  1  0  0  0  0
  6 13  1  0  0  0  0
  6 26  1  0  0  0  0
  7  8  1  0  0  0  0
  7 10  2  0  0  0  0
  7 12  1  0  0  0  0
  9 12  2  0  0  0  0
  9 14  1  0  0  0  0
 11 15  2  0  0  0  0
 11 16  1  0  0  0  0
 12 28  1  0  0  0  0
 13 30  1  0  0  0  0
 13 31  1  0  0  0  0
 13 32  1  0  0  0  0
 14 17  2  0  0  0  0
 14 18  1  0  0  0  0
 15 20  1  0  0  0  0
 15 33  1  0  0  0  0
 16 21  2  0  0  0  0
 16 34  1  0  0  0  0
 17 23  1  0  0  0  0
 17 35  1  0  0  0  0
 18 24  2  0  0  0  0
 18 36  1  0  0  0  0
 19 37  1  0  0  0  0
 20 22  2  0  0  0  0
 20 38  1  0  0  0  0
 21 22  1  0  0  0  0
 21 39  1  0  0  0  0
 22 40  1  0  0  0  0
 23 25  2  0  0  0  0
 23 41  1  0  0  0  0
 24 25  1  0  0  0  0
 24 42  1  0  0  0  0
M  END
> <PUBCHEM_COMPOUND_CID>
6918403

> <PUBCHEM_COMPOUND_CANONICALIZED>
1

> <PUBCHEM_CACTVS_COMPLEXITY>
420

> <PUBCHEM_CACTVS_HBOND_ACCEPTOR>
4

> <PUBCHEM_CACTVS_HBOND_DONOR>
3

> <PUBCHEM_CACTVS_ROTATABLE_BOND>
4

> <PUBCHEM_CACTVS_SUBSKEYS>
AAADceB7oAAAAAAAAAAAAAAAAAAAAWAAAAA8YIAAAAAAAFgB/AAAHgAQCAAADCzBnwQ3tt7JkgCgAyZjZACCgCmxIqAJ2aA+bJiILuLC2dOEdAhs0BPI2CeQ0OMOIAAAAAAAAABAAAAAAAAAAAAAAAAAAA==

> <PUBCHEM_IUPAC_OPENEYE_NAME>
4-[4-[[(1R)-1-phenylethyl]amino]-7H-pyrrolo[2,3-d]pyrimidin-6-yl]phenol

> <PUBCHEM_IUPAC_CAS_NAME>
4-[4-[[(1R)-1-phenylethyl]amino]-7H-pyrrolo[2,3-d]pyrimidin-6-yl]phenol

> <PUBCHEM_IUPAC_NAME_MARKUP>
4-[4-[[(1<I>R</I>)-1-phenylethyl]amino]-7<I>H</I>-pyrrolo[2,3-d]pyrimidin-6-yl]phenol

> <PUBCHEM_IUPAC_NAME>
4-[4-[[(1R)-1-phenylethyl]amino]-7H-pyrrolo[2,3-d]pyrimidin-6-yl]phenol

> <PUBCHEM_IUPAC_SYSTEMATIC_NAME>
4-[4-[[(1R)-1-phenylethyl]amino]-7H-pyrrolo[2,3-d]pyrimidin-6-yl]phenol

> <PUBCHEM_IUPAC_TRADITIONAL_NAME>
4-[4-[[(1R)-1-phenylethyl]amino]-7H-pyrrolo[2,3-d]pyrimidin-6-yl]phenol

> <PUBCHEM_IUPAC_INCHI>
InChI=1S/C20H18N4O/c1-13(14-5-3-2-4-6-14)23-19-17-11-18(24-20(17)22-12-21-19)15-7-9-16(25)10-8-15/h2-13,25H,1H3,(H2,21,22,23,24)/t13-/m1/s1

> <PUBCHEM_IUPAC_INCHIKEY>
XRYJULCDUUATMC-CYBMUJFWSA-N

> <PUBCHEM_XLOGP3_AA>
4.2

> <PUBCHEM_EXACT_MASS>
330.14806121

> <PUBCHEM_MOLECULAR_FORMULA>
C20H18N4O

> <PUBCHEM_MOLECULAR_WEIGHT>
330.4

> <PUBCHEM_OPENEYE_CAN_SMILES>
CC(C1=CC=CC=C1)NC2=NC=NC3=C2C=C(N3)C4=CC=C(C=C4)O

> <PUBCHEM_OPENEYE_ISO_SMILES>
C[C@H](C1=CC=CC=C1)NC2=NC=NC3=C2C=C(N3)C4=CC=C(C=C4)O

> <PUBCHEM_CACTVS_TPSA>
73.8

> <PUBCHEM_MONOISOTOPIC_WEIGHT>
330.14806121

> <PUBCHEM_TOTAL_CHARGE>
0

> <PUBCHEM_HEAVY_ATOM_COUNT>
25

> <PUBCHEM_ATOM_DEF_STEREO_COUNT>
1

> <PUBCHEM_ATOM_UDEF_STEREO_COUNT>
0

> <PUBCHEM_BOND_DEF_STEREO_COUNT>
0

> <PUBCHEM_BOND_UDEF_STEREO_COUNT>
0

> <PUBCHEM_ISOTOPIC_ATOM_COUNT>
0

> <PUBCHEM_COMPONENT_COUNT>
1

> <PUBCHEM_CACTVS_TAUTO_COUNT>
61

> <PUBCHEM_COORDINATE_TYPE>
1
5
255

> <PUBCHEM_BONDANNOTATIONS>
11  15  8
11  16  8
14  17  8
14  18  8
15  20  8
16  21  8
17  23  8
18  24  8
6  2  6
20  22  8
21  22  8
23  25  8
24  25  8
3  10  8
3  9  8
4  19  8
4  8  8
5  10  8
5  19  8
7  10  8
7  12  8
7  8  8
9  12  8

$$$$
59174488
  -OEChem-11282412102D

 53 55  0     0  0  0  0  0  0999 V2000
    4.5981    3.7500    0.0000 F   0  0  0  0  0  0  0  0  0  0  0  0
   11.5263    3.7500    0.0000 O   0  0  0  0  0  0  0  0  0  0  0  0
   14.1244    3.2500    0.0000 O   0  0  0  0  0  0  0  0  0  0  0  0
    3.7320   -2.7500    0.0000 O   0  0  0  0  0  0  0  0  0  0  0  0
    4.5981    1.7500    0.0000 N   0  0  0  0  0  0  0  0  0  0  0  0
    8.0622    1.7500    0.0000 N   0  0  0  0  0  0  0  0  0  0  0  0
    6.3301    1.7500    0.0000 N   0  0  0  0  0  0  0  0  0  0  0  0
    2.8660   -1.2500    0.0000 N   0  0  0  0  0  0  0  0  0  0  0  0
    7.1962    3.2500    0.0000 N   0  0  0  0  0  0  0  0  0  0  0  0
    4.5981    0.7500    0.0000 C   0  0  0  0  0  0  0  0  0  0  0  0
    8.9282    2.2500    0.0000 C   0  0  0  0  0  0  0  0  0  0  0  0
   10.6603    3.2500    0.0000 C   0  0  0  0  0  0  0  0  0  0  0  0
    3.7320    0.2500    0.0000 C   0  0  0  0  0  0  0  0  0  0  0  0
    3.7320   -0.7500    0.0000 C   0  0  0  0  0  0  0  0  0  0  0  0
    5.4641    2.2500    0.0000 C   0  0  0  0  0  0  0  0  0  0  0  0
    8.9282    3.2500    0.0000 C   0  0  0  0  0  0  0  0  0  0  0  0
    9.7942    1.7500    0.0000 C   0  0  0  0  0  0  0  0  0  0  0  0
    5.4641    0.2500    0.0000 C   0  0  0  0  0  0  0  0  0  0  0  0
    9.7942    3.7500    0.0000 C   0  0  0  0  0  0  0  0  0  0  0  0
   10.6603    2.2500    0.0000 C   0  0  0  0  0  0  0  0  0  0  0  0
    7.1962    2.2500    0.0000 C   0  0  0  0  0  0  0  0  0  0  0  0
    4.5981   -1.2500    0.0000 C   0  0  0  0  0  0  0  0  0  0  0  0
    5.4641   -0.7500    0.0000 C   0  0  0  0  0  0  0  0  0  0  0  0
   12.3923    3.2500    0.0000 C   0  0  0  0  0  0  0  0  0  0  0  0
    5.4641    3.2500    0.0000 C   0  0  0  0  0  0  0  0  0  0  0  0
   13.2583    3.7500    0.0000 C   0  0  0  0  0  0  0  0  0  0  0  0
    6.3301    3.7500    0.0000 C   0  0  0  0  0  0  0  0  0  0  0  0
    2.8660   -2.2500    0.0000 C   0  0  0  0  0  0  0  0  0  0  0  0
   14.9904    3.7500    0.0000 C   0  0  0  0  0  0  0  0  0  0  0  0
    2.0000   -2.7500    0.0000 C   0  0  0  0  0  0  0  0  0  0  0  0
    2.0000   -3.7500    0.0000 C   0  0  0  0  0  0  0  0  0  0  0  0
    3.1951    0.5600    0.0000 H   0  0  0  0  0  0  0  0  0  0  0  0
    4.0611    2.0600    0.0000 H   0  0  0  0  0  0  0  0  0  0  0  0
    8.3913    3.5600    0.0000 H   0  0  0  0  0  0  0  0  0  0  0  0
    9.7942    1.1300    0.0000 H   0  0  0  0  0  0  0  0  0  0  0  0
    8.0622    1.1300    0.0000 H   0  0  0  0  0  0  0  0  0  0  0  0
    6.0010    0.5600    0.0000 H   0  0  0  0  0  0  0  0  0  0  0  0
    9.7942    4.3700    0.0000 H   0  0  0  0  0  0  0  0  0  0  0  0
   11.1972    1.9400    0.0000 H   0  0  0  0  0  0  0  0  0  0  0  0
    4.5981   -1.8700    0.0000 H   0  0  0  0  0  0  0  0  0  0  0  0
    6.0010   -1.0600    0.0000 H   0  0  0  0  0  0  0  0  0  0  0  0
   11.9938    2.7750    0.0000 H   0  0  0  0  0  0  0  0  0  0  0  0
   12.7908    2.7750    0.0000 H   0  0  0  0  0  0  0  0  0  0  0  0
   13.6569    4.2250    0.0000 H   0  0  0  0  0  0  0  0  0  0  0  0
   12.8598    4.2250    0.0000 H   0  0  0  0  0  0  0  0  0  0  0  0
    2.3291   -0.9400    0.0000 H   0  0  0  0  0  0  0  0  0  0  0  0
    6.3301    4.3700    0.0000 H   0  0  0  0  0  0  0  0  0  0  0  0
   15.3004    3.2131    0.0000 H   0  0  0  0  0  0  0  0  0  0  0  0
   15.5273    4.0600    0.0000 H   0  0  0  0  0  0  0  0  0  0  0  0
   14.6804    4.2869    0.0000 H   0  0  0  0  0  0  0  0  0  0  0  0
    1.4631   -2.4400    0.0000 H   0  0  0  0  0  0  0  0  0  0  0  0
    1.4631   -4.0600    0.0000 H   0  0  0  0  0  0  0  0  0  0  0  0
    2.5369   -4.0600    0.0000 H   0  0  0  0  0  0  0  0  0  0  0  0
  1 25  1  0  0  0  0
  2 12  1  0  0  0  0
  2 24  1  0  0  0  0
  3 26  1  0  0  0  0
  3 29  1  0  0  0  0
  4 28  2  0  0  0  0
  5 10  1  0  0  0  0
  5 15  1  0  0  0  0
  5 33  1  0  0  0  0
  6 11  1  0  0  0  0
  6 21  1  0  0  0  0
  6 36  1  0  0  0  0
  7 15  2  0  0  0  0
  7 21  1  0  0  0  0
  8 14  1  0  0  0  0
  8 28  1  0  0  0  0
  8 46  1  0  0  0  0
  9 21  2  0  0  0  0
  9 27  1  0  0  0  0
 10 13  2  0  0  0  0
 10 18  1  0  0  0  0
 11 16  2  0  0  0  0
 11 17  1  0  0  0  0
 12 19  2  0  0  0  0
 12 20  1  0  0  0  0
 13 14  1  0  0  0  0
 13 32  1  0  0  0  0
 14 22  2  0  0  0  0
 15 25  1  0  0  0  0
 16 19  1  0  0  0  0
 16 34  1  0  0  0  0
 17 20  2  0  0  0  0
 17 35  1  0  0  0  0
 18 23  2  0  0  0  0
 18 37  1  0  0  0  0
 19 38  1  0  0  0  0
 20 39  1  0  0  0  0
 22 23  1  0  0  0  0
 22 40  1  0  0  0  0
 23 41  1  0  0  0  0
 24 26  1  0  0  0  0
 24 42  1  0  0  0  0
 24 43  1  0  0  0  0
 25 27  2  0  0  0  0
 26 44  1  0  0  0  0
 26 45  1  0  0  0  0
 27 47  1  0  0  0  0
 28 30  1  0  0  0  0
 29 48  1  0  0  0  0
 29 49  1  0  0  0  0
 29 50  1  0  0  0  0
 30 31  2  0  0  0  0
 30 51  1  0  0  0  0
 31 52  1  0  0  0  0
 31 53  1  0  0  0  0
M  END
> <PUBCHEM_COMPOUND_CID>
59174488

> <PUBCHEM_COMPOUND_CANONICALIZED>
1

> <PUBCHEM_CACTVS_COMPLEXITY>
561

> <PUBCHEM_CACTVS_HBOND_ACCEPTOR>
8

> <PUBCHEM_CACTVS_HBOND_DONOR>
3

> <PUBCHEM_CACTVS_ROTATABLE_BOND>
10

> <PUBCHEM_CACTVS_SUBSKEYS>
AAADceB7sQAAAAAAAAAAAAAAAAAAAAAAAAA8YIAAAAAAAAAB0AAAHwAQAAAACAzhkg4/9pbIFACoADd3dACCiCkxIqAJ2CAubNiNLuLE+duGPCjs1BPK6KewQAAAAEAAAAQAAAAAgAAACAAAAAAAAAAAAA==

> <PUBCHEM_IUPAC_OPENEYE_NAME>
N-[3-[[5-fluoro-2-[4-(2-methoxyethoxy)anilino]pyrimidin-4-yl]amino]phenyl]prop-2-enamide

> <PUBCHEM_IUPAC_CAS_NAME>
N-[3-[[5-fluoro-2-[4-(2-methoxyethoxy)anilino]-4-pyrimidinyl]amino]phenyl]-2-propenamide

> <PUBCHEM_IUPAC_NAME_MARKUP>
<I>N</I>-[3-[[5-fluoro-2-[4-(2-methoxyethoxy)anilino]pyrimidin-4-yl]amino]phenyl]prop-2-enamide

> <PUBCHEM_IUPAC_NAME>
N-[3-[[5-fluoro-2-[4-(2-methoxyethoxy)anilino]pyrimidin-4-yl]amino]phenyl]prop-2-enamide

> <PUBCHEM_IUPAC_SYSTEMATIC_NAME>
N-[3-[[5-fluoranyl-2-[[4-(2-methoxyethoxy)phenyl]amino]pyrimidin-4-yl]amino]phenyl]prop-2-enamide

> <PUBCHEM_IUPAC_TRADITIONAL_NAME>
N-[3-[[5-fluoro-2-[4-(2-methoxyethoxy)anilino]pyrimidin-4-yl]amino]phenyl]acrylamide

> <PUBCHEM_IUPAC_INCHI>
InChI=1S/C22H22FN5O3/c1-3-20(29)25-16-5-4-6-17(13-16)26-21-19(23)14-24-22(28-21)27-15-7-9-18(10-8-15)31-12-11-30-2/h3-10,13-14H,1,11-12H2,2H3,(H,25,29)(H2,24,26,27,28)

> <PUBCHEM_IUPAC_INCHIKEY>
KXBDTLQSDKGAEB-UHFFFAOYSA-N

> <PUBCHEM_XLOGP3_AA>
3.6

> <PUBCHEM_EXACT_MASS>
423.17066774

> <PUBCHEM_MOLECULAR_FORMULA>
C22H22FN5O3

> <PUBCHEM_MOLECULAR_WEIGHT>
423.4

> <PUBCHEM_OPENEYE_CAN_SMILES>
COCCOC1=CC=C(C=C1)NC2=NC=C(C(=N2)NC3=CC(=CC=C3)NC(=O)C=C)F

> <PUBCHEM_OPENEYE_ISO_SMILES>
COCCOC1=CC=C(C=C1)NC2=NC=C(C(=N2)NC3=CC(=CC=C3)NC(=O)C=C)F

> <PUBCHEM_CACTVS_TPSA>
97.4

> <PUBCHEM_MONOISOTOPIC_WEIGHT>
423.17066774

> <PUBCHEM_TOTAL_CHARGE>
0

> <PUBCHEM_HEAVY_ATOM_COUNT>
31

> <PUBCHEM_ATOM_DEF_STEREO_COUNT>
0

> <PUBCHEM_ATOM_UDEF_STEREO_COUNT>
0

> <PUBCHEM_BOND_DEF_STEREO_COUNT>
0

> <PUBCHEM_BOND_UDEF_STEREO_COUNT>
0

> <PUBCHEM_ISOTOPIC_ATOM_COUNT>
0

> <PUBCHEM_COMPONENT_COUNT>
1

> <PUBCHEM_CACTVS_TAUTO_COUNT>
-1

> <PUBCHEM_COORDINATE_TYPE>
1
5
255

> <PUBCHEM_BONDANNOTATIONS>
10  13  8
10  18  8
11  16  8
11  17  8
12  19  8
12  20  8
13  14  8
14  22  8
15  25  8
16  19  8
17  20  8
18  23  8
22  23  8
25  27  8
7  15  8
7  21  8
9  21  8
9  27  8

$$$$
118023034
  -OEChem-11282412102D

 64 69  0     1  0  0  0  0  0999 V2000
    3.3100    6.5439    0.0000 F   0  0  0  0  0  0  0  0  0  0  0  0
    3.3100   -3.4561    0.0000 N   0  0  0  0  0  0  0  0  0  0  0  0
    3.3100   -1.4561    0.0000 N   0  0  0  0  0  0  0  0  0  0  0  0
    4.1760   -5.9561    0.0000 N   0  0  0  0  0  0  0  0  0  0  0  0
    2.4440   -4.9561    0.0000 N   0  0  0  0  0  0  0  0  0  0  0  0
    4.1760    0.0439    0.0000 N   0  0  0  0  0  0  0  0  0  0  0  0
    2.4440    0.0439    0.0000 N   0  0  0  0  0  0  0  0  0  0  0  0
    2.3100    2.5439    0.0000 N   0  0  0  0  0  0  0  0  0  0  0  0
    3.3100   -6.4561    0.0000 N   0  0  0  0  0  0  0  0  0  0  0  0
    8.2447   -5.9561    0.0000 N   0  0  0  0  0  0  0  0  0  0  0  0
    8.2447   -4.9561    0.0000 N   0  0  0  0  0  0  0  0  0  0  0  0
    2.4440   -2.9561    0.0000 C   0  0  0  0  0  0  0  0  0  0  0  0
    4.1760   -2.9561    0.0000 C   0  0  0  0  0  0  0  0  0  0  0  0
    2.4440   -1.9561    0.0000 C   0  0  0  0  0  0  0  0  0  0  0  0
    4.1760   -1.9561    0.0000 C   0  0  0  0  0  0  0  0  0  0  0  0
    3.3100   -4.4561    0.0000 C   0  0  0  0  0  0  0  0  0  0  0  0
    3.3100   -0.4561    0.0000 C   0  0  0  0  0  0  0  0  0  0  0  0
    4.1760   -4.9561    0.0000 C   0  0  0  0  0  0  0  0  0  0  0  0
    3.3100    2.5439    0.0000 C   0  0  2  0  0  0  0  0  0  0  0  0
    3.3100    1.5439    0.0000 C   0  0  0  0  0  0  0  0  0  0  0  0
    5.1222   -4.6514    0.0000 C   0  0  0  0  0  0  0  0  0  0  0  0
    5.7058   -5.4561    0.0000 C   0  0  0  0  0  0  0  0  0  0  0  0
    3.3100    3.5439    0.0000 C   0  0  0  0  0  0  0  0  0  0  0  0
    5.1222   -6.2608    0.0000 C   0  0  0  0  0  0  0  0  0  0  0  0
    4.1760    1.0439    0.0000 C   0  0  0  0  0  0  0  0  0  0  0  0
    2.4440    1.0439    0.0000 C   0  0  0  0  0  0  0  0  0  0  0  0
    4.3100    2.5439    0.0000 C   0  0  0  0  0  0  0  0  0  0  0  0
    2.4440   -5.9561    0.0000 C   0  0  0  0  0  0  0  0  0  0  0  0
    6.7058   -5.4561    0.0000 C   0  0  0  0  0  0  0  0  0  0  0  0
    2.4440    4.0439    0.0000 C   0  0  0  0  0  0  0  0  0  0  0  0
    4.1760    4.0439    0.0000 C   0  0  0  0  0  0  0  0  0  0  0  0
    7.2936   -6.2651    0.0000 C   0  0  0  0  0  0  0  0  0  0  0  0
    7.2936   -4.6471    0.0000 C   0  0  0  0  0  0  0  0  0  0  0  0
    2.4440    5.0439    0.0000 C   0  0  0  0  0  0  0  0  0  0  0  0
    4.1760    5.0439    0.0000 C   0  0  0  0  0  0  0  0  0  0  0  0
    3.3100    5.5439    0.0000 C   0  0  0  0  0  0  0  0  0  0  0  0
    9.0537   -6.5439    0.0000 C   0  0  0  0  0  0  0  0  0  0  0  0
    1.8334   -2.8484    0.0000 H   0  0  0  0  0  0  0  0  0  0  0  0
    2.2319   -3.5387    0.0000 H   0  0  0  0  0  0  0  0  0  0  0  0
    4.3881   -3.5387    0.0000 H   0  0  0  0  0  0  0  0  0  0  0  0
    4.7866   -2.8484    0.0000 H   0  0  0  0  0  0  0  0  0  0  0  0
    2.2319   -1.3735    0.0000 H   0  0  0  0  0  0  0  0  0  0  0  0
    1.8334   -2.0638    0.0000 H   0  0  0  0  0  0  0  0  0  0  0  0
    4.7866   -2.0638    0.0000 H   0  0  0  0  0  0  0  0  0  0  0  0
    4.3881   -1.3735    0.0000 H   0  0  0  0  0  0  0  0  0  0  0  0
    5.3149   -4.0620    0.0000 H   0  0  0  0  0  0  0  0  0  0  0  0
    5.3149   -6.8502    0.0000 H   0  0  0  0  0  0  0  0  0  0  0  0
    4.7130    1.3539    0.0000 H   0  0  0  0  0  0  0  0  0  0  0  0
    1.9070    1.3539    0.0000 H   0  0  0  0  0  0  0  0  0  0  0  0
    4.3100    1.9239    0.0000 H   0  0  0  0  0  0  0  0  0  0  0  0
    4.9300    2.5439    0.0000 H   0  0  0  0  0  0  0  0  0  0  0  0
    4.3100    3.1639    0.0000 H   0  0  0  0  0  0  0  0  0  0  0  0
    2.0000    3.0808    0.0000 H   0  0  0  0  0  0  0  0  0  0  0  0
    2.0000    2.0070    0.0000 H   0  0  0  0  0  0  0  0  0  0  0  0
    1.9070   -6.2661    0.0000 H   0  0  0  0  0  0  0  0  0  0  0  0
    1.9070    3.7339    0.0000 H   0  0  0  0  0  0  0  0  0  0  0  0
    4.7130    3.7339    0.0000 H   0  0  0  0  0  0  0  0  0  0  0  0
    7.1020   -6.8548    0.0000 H   0  0  0  0  0  0  0  0  0  0  0  0
    7.1020   -4.0574    0.0000 H   0  0  0  0  0  0  0  0  0  0  0  0
    1.9070    5.3539    0.0000 H   0  0  0  0  0  0  0  0  0  0  0  0
    4.7130    5.3539    0.0000 H   0  0  0  0  0  0  0  0  0  0  0  0
    8.6893   -7.0455    0.0000 H   0  0  0  0  0  0  0  0  0  0  0  0
    9.5553   -6.9083    0.0000 H   0  0  0  0  0  0  0  0  0  0  0  0
    9.4181   -6.0423    0.0000 H   0  0  0  0  0  0  0  0  0  0  0  0
  1 36  1  0  0  0  0
  2 12  1  0  0  0  0
  2 13  1  0  0  0  0
  2 16  1  0  0  0  0
  3 14  1  0  0  0  0
  3 15  1  0  0  0  0
  3 17  1  0  0  0  0
  4  9  1  0  0  0  0
  4 18  1  0  0  0  0
  4 24  1  0  0  0  0
  5 16  2  0  0  0  0
  5 28  1  0  0  0  0
  6 17  2  0  0  0  0
  6 25  1  0  0  0  0
  7 17  1  0  0  0  0
  7 26  2  0  0  0  0
 19  8  1  6  0  0  0
  8 53  1  0  0  0  0
  8 54  1  0  0  0  0
  9 28  2  0  0  0  0
 10 11  1  0  0  0  0
 10 32  1  0  0  0  0
 10 37  1  0  0  0  0
 11 33  2  0  0  0  0
 12 14  1  0  0  0  0
 12 38  1  0  0  0  0
 12 39  1  0  0  0  0
 13 15  1  0  0  0  0
 13 40  1  0  0  0  0
 13 41  1  0  0  0  0
 14 42  1  0  0  0  0
 14 43  1  0  0  0  0
 15 44  1  0  0  0  0
 15 45  1  0  0  0  0
 16 18  1  0  0  0  0
 18 21  2  0  0  0  0
 19 20  1  0  0  0  0
 19 23  1  0  0  0  0
 19 27  1  0  0  0  0
 20 25  2  0  0  0  0
 20 26  1  0  0  0  0
 21 22  1  0  0  0  0
 21 46  1  0  0  0  0
 22 24  2  0  0  0  0
 22 29  1  0  0  0  0
 23 30  2  0  0  0  0
 23 31  1  0  0  0  0
 24 47  1  0  0  0  0
 25 48  1  0  0  0  0
 26 49  1  0  0  0  0
 27 50  1  0  0  0  0
 27 51  1  0  0  0  0
 27 52  1  0  0  0  0
 28 55  1  0  0  0  0
 29 32  2  0  0  0  0
 29 33  1  0  0  0  0
 30 34  1  0  0  0  0
 30 56  1  0  0  0  0
 31 35  2  0  0  0  0
 31 57  1  0  0  0  0
 32 58  1  0  0  0  0
 33 59  1  0  0  0  0
 34 36  2  0  0  0  0
 34 60  1  0  0  0  0
 35 36  1  0  0  0  0
 35 61  1  0  0  0  0
 37 62  1  0  0  0  0
 37 63  1  0  0  0  0
 37 64  1  0  0  0  0
M  END
> <PUBCHEM_COMPOUND_CID>
118023034

> <PUBCHEM_COMPOUND_CANONICALIZED>
1

> <PUBCHEM_CACTVS_COMPLEXITY>
752

> <PUBCHEM_CACTVS_HBOND_ACCEPTOR>
9

> <PUBCHEM_CACTVS_HBOND_DONOR>
1

> <PUBCHEM_CACTVS_ROTATABLE_BOND>
5

> <PUBCHEM_CACTVS_SUBSKEYS>
AAADceB7wQAAAAAAAAAAAAAAAAAAAWLAAAA8WLEAAAAAAFgB/gAAHQAYAAAADIjBHgw/8LdIEACiAzZnZACShC8xkqAd2CA4dJiIaOLA2dGUpAhomALIyCcQgMAOgAAAAAAAAAAAAAAAAAAAAAAAAAAAAA==

> <PUBCHEM_IUPAC_OPENEYE_NAME>
(1S)-1-(4-fluorophenyl)-1-[2-[4-[6-(1-methylpyrazol-4-yl)pyrrolo[2,1-f][1,2,4]triazin-4-yl]piperazin-1-yl]pyrimidin-5-yl]ethanamine

> <PUBCHEM_IUPAC_CAS_NAME>
(1S)-1-(4-fluorophenyl)-1-[2-[4-[6-(1-methyl-4-pyrazolyl)-4-pyrrolo[2,1-f][1,2,4]triazinyl]-1-piperazinyl]-5-pyrimidinyl]ethanamine

> <PUBCHEM_IUPAC_NAME_MARKUP>
(1<I>S</I>)-1-(4-fluorophenyl)-1-[2-[4-[6-(1-methylpyrazol-4-yl)pyrrolo[2,1-f][1,2,4]triazin-4-yl]piperazin-1-yl]pyrimidin-5-yl]ethanamine

> <PUBCHEM_IUPAC_NAME>
(1S)-1-(4-fluorophenyl)-1-[2-[4-[6-(1-methylpyrazol-4-yl)pyrrolo[2,1-f][1,2,4]triazin-4-yl]piperazin-1-yl]pyrimidin-5-yl]ethanamine

> <PUBCHEM_IUPAC_SYSTEMATIC_NAME>
(1S)-1-(4-fluorophenyl)-1-[2-[4-[6-(1-methylpyrazol-4-yl)pyrrolo[2,1-f][1,2,4]triazin-4-yl]piperazin-1-yl]pyrimidin-5-yl]ethanamine

> <PUBCHEM_IUPAC_TRADITIONAL_NAME>
[(1S)-1-(4-fluorophenyl)-1-[2-[4-[6-(1-methylpyrazol-4-yl)pyrrolo[2,1-f][1,2,4]triazin-4-yl]piperazino]pyrimidin-5-yl]ethyl]amine

> <PUBCHEM_IUPAC_INCHI>
InChI=1S/C26H27FN10/c1-26(28,20-3-5-22(27)6-4-20)21-13-29-25(30-14-21)36-9-7-35(8-10-36)24-23-11-18(16-37(23)33-17-31-24)19-12-32-34(2)15-19/h3-6,11-17H,7-10,28H2,1-2H3/t26-/m0/s1

> <PUBCHEM_IUPAC_INCHIKEY>
DWYRIWUZIJHQKQ-SANMLTNESA-N

> <PUBCHEM_XLOGP3_AA>
1.9

> <PUBCHEM_EXACT_MASS>
498.24041907

> <PUBCHEM_MOLECULAR_FORMULA>
C26H27FN10

> <PUBCHEM_MOLECULAR_WEIGHT>
498.6

> <PUBCHEM_OPENEYE_CAN_SMILES>
CC(C1=CC=C(C=C1)F)(C2=CN=C(N=C2)N3CCN(CC3)C4=NC=NN5C4=CC(=C5)C6=CN(N=C6)C)N

> <PUBCHEM_OPENEYE_ISO_SMILES>
C[C@](C1=CC=C(C=C1)F)(C2=CN=C(N=C2)N3CCN(CC3)C4=NC=NN5C4=CC(=C5)C6=CN(N=C6)C)N

> <PUBCHEM_CACTVS_TPSA>
106

> <PUBCHEM_MONOISOTOPIC_WEIGHT>
498.24041907

> <PUBCHEM_TOTAL_CHARGE>
0

> <PUBCHEM_HEAVY_ATOM_COUNT>
37

> <PUBCHEM_ATOM_DEF_STEREO_COUNT>
1

> <PUBCHEM_ATOM_UDEF_STEREO_COUNT>
0

> <PUBCHEM_BOND_DEF_STEREO_COUNT>
0

> <PUBCHEM_BOND_UDEF_STEREO_COUNT>
0

> <PUBCHEM_ISOTOPIC_ATOM_COUNT>
0

> <PUBCHEM_COMPONENT_COUNT>
1

> <PUBCHEM_CACTVS_TAUTO_COUNT>
1

> <PUBCHEM_COORDINATE_TYPE>
1
5
255

> <PUBCHEM_BONDANNOTATIONS>
10  11  8
10  32  8
11  33  8
16  18  8
18  21  8
20  25  8
20  26  8
21  22  8
22  24  8
23  30  8
23  31  8
29  32  8
29  33  8
30  34  8
31  35  8
34  36  8
35  36  8
4  18  8
4  24  8
4  9  8
5  16  8
5  28  8
6  17  8
6  25  8
7  17  8
7  26  8
19  8  6
9  28  8

$$$$
11545920
  -OEChem-11282412102D

 54 57  0     0  0  0  0  0  0999 V2000
    6.3301    7.0000    0.0000 F   0  0  0  0  0  0  0  0  0  0  0  0
    2.8660   -7.0000    0.0000 O   0  0  0  0  0  0  0  0  0  0  0  0
    4.5981    2.0000    0.0000 O   0  0  0  0  0  0  0  0  0  0  0  0
    2.8660   -5.0000    0.0000 N   0  0  0  0  0  0  0  0  0  0  0  0
    3.7320    0.5000    0.0000 N   0  0  0  0  0  0  0  0  0  0  0  0
    3.7320    3.5000    0.0000 N   0  0  0  0  0  0  0  0  0  0  0  0
    3.7320   -5.5000    0.0000 C   0  0  0  0  0  0  0  0  0  0  0  0
    2.0000   -5.5000    0.0000 C   0  0  0  0  0  0  0  0  0  0  0  0
    3.7320   -6.5000    0.0000 C   0  0  0  0  0  0  0  0  0  0  0  0
    2.0000   -6.5000    0.0000 C   0  0  0  0  0  0  0  0  0  0  0  0
    2.8660   -4.0000    0.0000 C   0  0  0  0  0  0  0  0  0  0  0  0
    3.7320   -3.5000    0.0000 C   0  0  0  0  0  0  0  0  0  0  0  0
    2.0000   -3.5000    0.0000 C   0  0  0  0  0  0  0  0  0  0  0  0
    2.8660   -2.0000    0.0000 C   0  0  0  0  0  0  0  0  0  0  0  0
    3.7320   -2.5000    0.0000 C   0  0  0  0  0  0  0  0  0  0  0  0
    2.0000   -2.5000    0.0000 C   0  0  0  0  0  0  0  0  0  0  0  0
    2.8660   -1.0000    0.0000 C   0  0  0  0  0  0  0  0  0  0  0  0
    2.0000   -0.5000    0.0000 C   0  0  0  0  0  0  0  0  0  0  0  0
    2.8660    1.0000    0.0000 C   0  0  0  0  0  0  0  0  0  0  0  0
    3.7320   -0.5000    0.0000 C   0  0  0  0  0  0  0  0  0  0  0  0
    2.8660    2.0000    0.0000 C   0  0  0  0  0  0  0  0  0  0  0  0
    2.0000    0.5000    0.0000 C   0  0  0  0  0  0  0  0  0  0  0  0
    4.5981    4.0000    0.0000 C   0  0  0  0  0  0  0  0  0  0  0  0
    3.7320    2.5000    0.0000 C   0  0  0  0  0  0  0  0  0  0  0  0
    4.5981    5.0000    0.0000 C   0  0  0  0  0  0  0  0  0  0  0  0
    5.4641    5.5000    0.0000 C   0  0  0  0  0  0  0  0  0  0  0  0
    3.7320    5.5000    0.0000 C   0  0  0  0  0  0  0  0  0  0  0  0
    5.4641    6.5000    0.0000 C   0  0  0  0  0  0  0  0  0  0  0  0
    3.7320    6.5000    0.0000 C   0  0  0  0  0  0  0  0  0  0  0  0
    4.5981    7.0000    0.0000 C   0  0  0  0  0  0  0  0  0  0  0  0
    4.3426   -5.6077    0.0000 H   0  0  0  0  0  0  0  0  0  0  0  0
    3.9441   -4.9174    0.0000 H   0  0  0  0  0  0  0  0  0  0  0  0
    1.7880   -4.9174    0.0000 H   0  0  0  0  0  0  0  0  0  0  0  0
    1.3894   -5.6077    0.0000 H   0  0  0  0  0  0  0  0  0  0  0  0
    3.9441   -7.0826    0.0000 H   0  0  0  0  0  0  0  0  0  0  0  0
    4.3426   -6.3923    0.0000 H   0  0  0  0  0  0  0  0  0  0  0  0
    1.3894   -6.3923    0.0000 H   0  0  0  0  0  0  0  0  0  0  0  0
    1.7880   -7.0826    0.0000 H   0  0  0  0  0  0  0  0  0  0  0  0
    4.2690   -3.8100    0.0000 H   0  0  0  0  0  0  0  0  0  0  0  0
    1.4631   -3.8100    0.0000 H   0  0  0  0  0  0  0  0  0  0  0  0
    4.2690   -2.1900    0.0000 H   0  0  0  0  0  0  0  0  0  0  0  0
    1.4631   -2.1900    0.0000 H   0  0  0  0  0  0  0  0  0  0  0  0
    1.4631   -0.8100    0.0000 H   0  0  0  0  0  0  0  0  0  0  0  0
    4.2690   -0.8100    0.0000 H   0  0  0  0  0  0  0  0  0  0  0  0
    2.6540    2.5826    0.0000 H   0  0  0  0  0  0  0  0  0  0  0  0
    2.2554    1.8923    0.0000 H   0  0  0  0  0  0  0  0  0  0  0  0
    1.4631    0.8100    0.0000 H   0  0  0  0  0  0  0  0  0  0  0  0
    4.8101    3.4174    0.0000 H   0  0  0  0  0  0  0  0  0  0  0  0
    5.2087    4.1077    0.0000 H   0  0  0  0  0  0  0  0  0  0  0  0
    3.1951    3.8100    0.0000 H   0  0  0  0  0  0  0  0  0  0  0  0
    6.0010    5.1900    0.0000 H   0  0  0  0  0  0  0  0  0  0  0  0
    3.1951    5.1900    0.0000 H   0  0  0  0  0  0  0  0  0  0  0  0
    3.1951    6.8100    0.0000 H   0  0  0  0  0  0  0  0  0  0  0  0
    4.5981    7.6200    0.0000 H   0  0  0  0  0  0  0  0  0  0  0  0
  1 28  1  0  0  0  0
  2  9  1  0  0  0  0
  2 10  1  0  0  0  0
  3 24  2  0  0  0  0
  4  7  1  0  0  0  0
  4  8  1  0  0  0  0
  4 11  1  0  0  0  0
  5 19  2  0  0  0  0
  5 20  1  0  0  0  0
  6 23  1  0  0  0  0
  6 24  1  0  0  0  0
  6 50  1  0  0  0  0
  7  9  1  0  0  0  0
  7 31  1  0  0  0  0
  7 32  1  0  0  0  0
  8 10  1  0  0  0  0
  8 33  1  0  0  0  0
  8 34  1  0  0  0  0
  9 35  1  0  0  0  0
  9 36  1  0  0  0  0
 10 37  1  0  0  0  0
 10 38  1  0  0  0  0
 11 12  2  0  0  0  0
 11 13  1  0  0  0  0
 12 15  1  0  0  0  0
 12 39  1  0  0  0  0
 13 16  2  0  0  0  0
 13 40  1  0  0  0  0
 14 15  2  0  0  0  0
 14 16  1  0  0  0  0
 14 17  1  0  0  0  0
 15 41  1  0  0  0  0
 16 42  1  0  0  0  0
 17 18  1  0  0  0  0
 17 20  2  0  0  0  0
 18 22  2  0  0  0  0
 18 43  1  0  0  0  0
 19 21  1  0  0  0  0
 19 22  1  0  0  0  0
 20 44  1  0  0  0  0
 21 24  1  0  0  0  0
 21 45  1  0  0  0  0
 21 46  1  0  0  0  0
 22 47  1  0  0  0  0
 23 25  1  0  0  0  0
 23 48  1  0  0  0  0
 23 49  1  0  0  0  0
 25 26  2  0  0  0  0
 25 27  1  0  0  0  0
 26 28  1  0  0  0  0
 26 51  1  0  0  0  0
 27 29  2  0  0  0  0
 27 52  1  0  0  0  0
 28 30  2  0  0  0  0
 29 30  1  0  0  0  0
 29 53  1  0  0  0  0
 30 54  1  0  0  0  0
M  END
> <PUBCHEM_COMPOUND_CID>
11545920

> <PUBCHEM_COMPOUND_CANONICALIZED>
1

> <PUBCHEM_CACTVS_COMPLEXITY>
535

> <PUBCHEM_CACTVS_HBOND_ACCEPTOR>
5

> <PUBCHEM_CACTVS_HBOND_DONOR>
1

> <PUBCHEM_CACTVS_ROTATABLE_BOND>
6

> <PUBCHEM_CACTVS_SUBSKEYS>
AAADceB7MQAAAAAAAAAAAAAAAAAAAAAAAAA8eIEAAAAAAAAB0AAAHwAQAAAADAjhng48wJPIFACoAzV3VACCgCAxAiAI2KE4ZJgKIPrA1ZGHIAhglgDYyAcYiMCOiAAAAAAAAAAQAAAAAAAAAAAAAAAAAA==

> <PUBCHEM_IUPAC_OPENEYE_NAME>
N-[(3-fluorophenyl)methyl]-2-[5-(4-morpholinophenyl)-2-pyridyl]acetamide

> <PUBCHEM_IUPAC_CAS_NAME>
N-[(3-fluorophenyl)methyl]-2-[5-[4-(4-morpholinyl)phenyl]-2-pyridinyl]acetamide

> <PUBCHEM_IUPAC_NAME_MARKUP>
<I>N</I>-[(3-fluorophenyl)methyl]-2-[5-(4-morpholin-4-ylphenyl)pyridin-2-yl]acetamide

> <PUBCHEM_IUPAC_NAME>
N-[(3-fluorophenyl)methyl]-2-[5-(4-morpholin-4-ylphenyl)pyridin-2-yl]acetamide

> <PUBCHEM_IUPAC_SYSTEMATIC_NAME>
N-[(3-fluorophenyl)methyl]-2-[5-(4-morpholin-4-ylphenyl)pyridin-2-yl]ethanamide

> <PUBCHEM_IUPAC_TRADITIONAL_NAME>
N-(3-fluorobenzyl)-2-[5-(4-morpholinophenyl)-2-pyridyl]acetamide

> <PUBCHEM_IUPAC_INCHI>
InChI=1S/C24H24FN3O2/c25-21-3-1-2-18(14-21)16-27-24(29)15-22-7-4-20(17-26-22)19-5-8-23(9-6-19)28-10-12-30-13-11-28/h1-9,14,17H,10-13,15-16H2,(H,27,29)

> <PUBCHEM_IUPAC_INCHIKEY>
CMKKPJNMYLOUCE-UHFFFAOYSA-N

> <PUBCHEM_XLOGP3_AA>
3.1

> <PUBCHEM_EXACT_MASS>
405.18525518

> <PUBCHEM_MOLECULAR_FORMULA>
C24H24FN3O2

> <PUBCHEM_MOLECULAR_WEIGHT>
405.5

> <PUBCHEM_OPENEYE_CAN_SMILES>
C1COCCN1C2=CC=C(C=C2)C3=CN=C(C=C3)CC(=O)NCC4=CC(=CC=C4)F

> <PUBCHEM_OPENEYE_ISO_SMILES>
C1COCCN1C2=CC=C(C=C2)C3=CN=C(C=C3)CC(=O)NCC4=CC(=CC=C4)F

> <PUBCHEM_CACTVS_TPSA>
54.5

> <PUBCHEM_MONOISOTOPIC_WEIGHT>
405.18525518

> <PUBCHEM_TOTAL_CHARGE>
0

> <PUBCHEM_HEAVY_ATOM_COUNT>
30

> <PUBCHEM_ATOM_DEF_STEREO_COUNT>
0

> <PUBCHEM_ATOM_UDEF_STEREO_COUNT>
0

> <PUBCHEM_BOND_DEF_STEREO_COUNT>
0

> <PUBCHEM_BOND_UDEF_STEREO_COUNT>
0

> <PUBCHEM_ISOTOPIC_ATOM_COUNT>
0

> <PUBCHEM_COMPONENT_COUNT>
1

> <PUBCHEM_CACTVS_TAUTO_COUNT>
-1

> <PUBCHEM_COORDINATE_TYPE>
1
5
255

> <PUBCHEM_BONDANNOTATIONS>
11  12  8
11  13  8
12  15  8
13  16  8
14  15  8
14  16  8
17  18  8
17  20  8
18  22  8
19  22  8
25  26  8
25  27  8
26  28  8
27  29  8
28  30  8
29  30  8
5  19  8
5  20  8

$$$$
24889392
  -OEChem-11282412102D

 72 77  0     0  0  0  0  0  0999 V2000
    9.9538    2.3284    0.0000 S   0  0  0  0  0  0  0  0  0  0  0  0
    2.0000    3.5793    0.0000 O   0  0  0  0  0  0  0  0  0  0  0  0
    6.5820    3.6502    0.0000 O   0  0  0  0  0  0  0  0  0  0  0  0
   17.2681   -4.3266    0.0000 O   0  0  0  0  0  0  0  0  0  0  0  0
   14.5099   -2.3722    0.0000 O   0  0  0  0  0  0  0  0  0  0  0  0
    3.9579    3.9876    0.0000 N   0  0  0  0  0  0  0  0  0  0  0  0
    9.4538    0.7896    0.0000 N   0  0  0  0  0  0  0  0  0  0  0  0
   11.0655    0.7910    0.0000 N   0  0  0  0  0  0  0  0  0  0  0  0
   16.3546   -4.7333    0.0000 N   0  0  0  0  0  0  0  0  0  0  0  0
   14.6909   -4.0947    0.0000 N   0  0  0  0  0  0  0  0  0  0  0  0
   13.1086   -3.3902    0.0000 N   0  0  0  0  0  0  0  0  0  0  0  0
    3.6452    3.0378    0.0000 C   0  0  0  0  0  0  0  0  0  0  0  0
    3.2916    4.7333    0.0000 C   0  0  0  0  0  0  0  0  0  0  0  0
    4.9368    4.1918    0.0000 C   0  0  0  0  0  0  0  0  0  0  0  0
    2.6663    2.8336    0.0000 C   0  0  0  0  0  0  0  0  0  0  0  0
    2.3127    4.5292    0.0000 C   0  0  0  0  0  0  0  0  0  0  0  0
   17.9067   -2.6630    0.0000 C   0  0  0  0  0  0  0  0  0  0  0  0
    5.6031    3.4460    0.0000 C   0  0  0  0  0  0  0  0  0  0  0  0
   17.1636   -3.3321    0.0000 C   0  0  0  0  0  0  0  0  0  0  0  0
   18.6499   -1.9938    0.0000 C   0  0  0  0  0  0  0  0  0  0  0  0
   18.5759   -3.4061    0.0000 C   0  0  0  0  0  0  0  0  0  0  0  0
   17.2376   -1.9198    0.0000 C   0  0  0  0  0  0  0  0  0  0  0  0
    8.6448    1.3774    0.0000 C   0  0  0  0  0  0  0  0  0  0  0  0
    8.9538    2.3284    0.0000 C   0  0  0  0  0  0  0  0  0  0  0  0
    7.2483    2.9045    0.0000 C   0  0  0  0  0  0  0  0  0  0  0  0
   10.2628    1.3774    0.0000 C   0  0  0  0  0  0  0  0  0  0  0  0
    8.2688    3.1132    0.0000 C   0  0  0  0  0  0  0  0  0  0  0  0
    7.6293    1.1451    0.0000 C   0  0  0  0  0  0  0  0  0  0  0  0
    9.7634   -0.1550    0.0000 C   0  0  0  0  0  0  0  0  0  0  0  0
   16.1855   -3.1242    0.0000 C   0  0  0  0  0  0  0  0  0  0  0  0
   10.7575   -0.1542    0.0000 C   0  0  0  0  0  0  0  0  0  0  0  0
    6.9264    1.9138    0.0000 C   0  0  0  0  0  0  0  0  0  0  0  0
   15.6855   -3.9902    0.0000 C   0  0  0  0  0  0  0  0  0  0  0  0
   11.3453   -0.9632    0.0000 C   0  0  0  0  0  0  0  0  0  0  0  0
   12.3398   -0.8587    0.0000 C   0  0  0  0  0  0  0  0  0  0  0  0
   10.9385   -1.8767    0.0000 C   0  0  0  0  0  0  0  0  0  0  0  0
   12.5208   -2.5812    0.0000 C   0  0  0  0  0  0  0  0  0  0  0  0
   12.9276   -1.6677    0.0000 C   0  0  0  0  0  0  0  0  0  0  0  0
   11.5263   -2.6858    0.0000 C   0  0  0  0  0  0  0  0  0  0  0  0
   14.1031   -3.2857    0.0000 C   0  0  0  0  0  0  0  0  0  0  0  0
    3.6644    2.4181    0.0000 H   0  0  0  0  0  0  0  0  0  0  0  0
    4.2588    2.9491    0.0000 H   0  0  0  0  0  0  0  0  0  0  0  0
    3.8187    5.0599    0.0000 H   0  0  0  0  0  0  0  0  0  0  0  0
    3.0616    5.3091    0.0000 H   0  0  0  0  0  0  0  0  0  0  0  0
    5.4639    4.5183    0.0000 H   0  0  0  0  0  0  0  0  0  0  0  0
    4.7068    4.7675    0.0000 H   0  0  0  0  0  0  0  0  0  0  0  0
    2.1392    2.5071    0.0000 H   0  0  0  0  0  0  0  0  0  0  0  0
    2.8963    2.2579    0.0000 H   0  0  0  0  0  0  0  0  0  0  0  0
    2.2934    5.1489    0.0000 H   0  0  0  0  0  0  0  0  0  0  0  0
    1.6990    4.6179    0.0000 H   0  0  0  0  0  0  0  0  0  0  0  0
    5.0760    3.1195    0.0000 H   0  0  0  0  0  0  0  0  0  0  0  0
    5.8331    2.8703    0.0000 H   0  0  0  0  0  0  0  0  0  0  0  0
   19.0648   -2.4546    0.0000 H   0  0  0  0  0  0  0  0  0  0  0  0
   19.1106   -1.5790    0.0000 H   0  0  0  0  0  0  0  0  0  0  0  0
   18.2350   -1.5331    0.0000 H   0  0  0  0  0  0  0  0  0  0  0  0
   18.1151   -3.8210    0.0000 H   0  0  0  0  0  0  0  0  0  0  0  0
   18.9907   -3.8668    0.0000 H   0  0  0  0  0  0  0  0  0  0  0  0
   19.0366   -2.9912    0.0000 H   0  0  0  0  0  0  0  0  0  0  0  0
   17.6984   -1.5050    0.0000 H   0  0  0  0  0  0  0  0  0  0  0  0
   16.8228   -1.4591    0.0000 H   0  0  0  0  0  0  0  0  0  0  0  0
   16.7769   -2.3347    0.0000 H   0  0  0  0  0  0  0  0  0  0  0  0
    8.4672    3.7006    0.0000 H   0  0  0  0  0  0  0  0  0  0  0  0
    7.4446    0.5533    0.0000 H   0  0  0  0  0  0  0  0  0  0  0  0
    9.3998   -0.6572    0.0000 H   0  0  0  0  0  0  0  0  0  0  0  0
   15.9333   -2.5578    0.0000 H   0  0  0  0  0  0  0  0  0  0  0  0
    6.3205    1.7826    0.0000 H   0  0  0  0  0  0  0  0  0  0  0  0
   12.5920   -0.2923    0.0000 H   0  0  0  0  0  0  0  0  0  0  0  0
   10.3219   -1.9415    0.0000 H   0  0  0  0  0  0  0  0  0  0  0  0
   14.4388   -4.6611    0.0000 H   0  0  0  0  0  0  0  0  0  0  0  0
   13.5442   -1.6029    0.0000 H   0  0  0  0  0  0  0  0  0  0  0  0
   11.2741   -3.2522    0.0000 H   0  0  0  0  0  0  0  0  0  0  0  0
   12.8565   -3.9566    0.0000 H   0  0  0  0  0  0  0  0  0  0  0  0
  1 24  1  0  0  0  0
  1 26  1  0  0  0  0
  2 15  1  0  0  0  0
  2 16  1  0  0  0  0
  3 18  1  0  0  0  0
  3 25  1  0  0  0  0
  4  9  1  0  0  0  0
  4 19  1  0  0  0  0
  5 40  2  0  0  0  0
  6 12  1  0  0  0  0
  6 13  1  0  0  0  0
  6 14  1  0  0  0  0
  7 23  1  0  0  0  0
  7 26  1  0  0  0  0
  7 29  1  0  0  0  0
  8 26  2  0  0  0  0
  8 31  1  0  0  0  0
  9 33  2  0  0  0  0
 10 33  1  0  0  0  0
 10 40  1  0  0  0  0
 10 69  1  0  0  0  0
 11 37  1  0  0  0  0
 11 40  1  0  0  0  0
 11 72  1  0  0  0  0
 12 15  1  0  0  0  0
 12 41  1  0  0  0  0
 12 42  1  0  0  0  0
 13 16  1  0  0  0  0
 13 43  1  0  0  0  0
 13 44  1  0  0  0  0
 14 18  1  0  0  0  0
 14 45  1  0  0  0  0
 14 46  1  0  0  0  0
 15 47  1  0  0  0  0
 15 48  1  0  0  0  0
 16 49  1  0  0  0  0
 16 50  1  0  0  0  0
 17 19  1  0  0  0  0
 17 20  1  0  0  0  0
 17 21  1  0  0  0  0
 17 22  1  0  0  0  0
 18 51  1  0  0  0  0
 18 52  1  0  0  0  0
 19 30  2  0  0  0  0
 20 53  1  0  0  0  0
 20 54  1  0  0  0  0
 20 55  1  0  0  0  0
 21 56  1  0  0  0  0
 21 57  1  0  0  0  0
 21 58  1  0  0  0  0
 22 59  1  0  0  0  0
 22 60  1  0  0  0  0
 22 61  1  0  0  0  0
 23 24  2  0  0  0  0
 23 28  1  0  0  0  0
 24 27  1  0  0  0  0
 25 27  2  0  0  0  0
 25 32  1  0  0  0  0
 27 62  1  0  0  0  0
 28 32  2  0  0  0  0
 28 63  1  0  0  0  0
 29 31  2  0  0  0  0
 29 64  1  0  0  0  0
 30 33  1  0  0  0  0
 30 65  1  0  0  0  0
 31 34  1  0  0  0  0
 32 66  1  0  0  0  0
 34 35  2  0  0  0  0
 34 36  1  0  0  0  0
 35 38  1  0  0  0  0
 35 67  1  0  0  0  0
 36 39  2  0  0  0  0
 36 68  1  0  0  0  0
 37 38  2  0  0  0  0
 37 39  1  0  0  0  0
 38 70  1  0  0  0  0
 39 71  1  0  0  0  0
M  END
> <PUBCHEM_COMPOUND_CID>
24889392

> <PUBCHEM_COMPOUND_CANONICALIZED>
1

> <PUBCHEM_CACTVS_COMPLEXITY>
849

> <PUBCHEM_CACTVS_HBOND_ACCEPTOR>
8

> <PUBCHEM_CACTVS_HBOND_DONOR>
2

> <PUBCHEM_CACTVS_ROTATABLE_BOND>
8

> <PUBCHEM_CACTVS_SUBSKEYS>
AAADcfB7uABAAAAAAAAAAAAAAAAAAWLFgAA8YIAAAAAWAFgB/AAAHgQUAAAADgzh3gY/97fcHAitA7Z3dgCD+K11Orhp2D0+fNqOburkuZuXOKju1RvY6GewwIAPCEAABAAAAQAQgAAIAAACAAAAAAAAAA==

> <PUBCHEM_IUPAC_OPENEYE_NAME>
1-(5-tert-butylisoxazol-3-yl)-3-[4-[6-(2-morpholinoethoxy)imidazo[2,1-b][1,3]benzothiazol-2-yl]phenyl]urea

> <PUBCHEM_IUPAC_CAS_NAME>
1-(5-tert-butyl-3-isoxazolyl)-3-[4-[6-[2-(4-morpholinyl)ethoxy]-2-imidazo[2,1-b][1,3]benzothiazolyl]phenyl]urea

> <PUBCHEM_IUPAC_NAME_MARKUP>
1-(5-<I>tert</I>-butyl-1,2-oxazol-3-yl)-3-[4-[6-(2-morpholin-4-ylethoxy)imidazo[2,1-b][1,3]benzothiazol-2-yl]phenyl]urea

> <PUBCHEM_IUPAC_NAME>
1-(5-tert-butyl-1,2-oxazol-3-yl)-3-[4-[6-(2-morpholin-4-ylethoxy)imidazo[2,1-b][1,3]benzothiazol-2-yl]phenyl]urea

> <PUBCHEM_IUPAC_SYSTEMATIC_NAME>
1-(5-tert-butyl-1,2-oxazol-3-yl)-3-[4-[6-(2-morpholin-4-ylethoxy)imidazo[2,1-b][1,3]benzothiazol-2-yl]phenyl]urea

> <PUBCHEM_IUPAC_TRADITIONAL_NAME>
1-(5-tert-butylisoxazol-3-yl)-3-[4-[6-(2-morpholinoethoxy)imidazo[2,1-b][1,3]benzothiazol-2-yl]phenyl]urea

> <PUBCHEM_IUPAC_INCHI>
InChI=1S/C29H32N6O4S/c1-29(2,3)25-17-26(33-39-25)32-27(36)30-20-6-4-19(5-7-20)22-18-35-23-9-8-21(16-24(23)40-28(35)31-22)38-15-12-34-10-13-37-14-11-34/h4-9,16-18H,10-15H2,1-3H3,(H2,30,32,33,36)

> <PUBCHEM_IUPAC_INCHIKEY>
CVWXJKQAOSCOAB-UHFFFAOYSA-N

> <PUBCHEM_XLOGP3_AA>
5.6

> <PUBCHEM_EXACT_MASS>
560.22057470

> <PUBCHEM_MOLECULAR_FORMULA>
C29H32N6O4S

> <PUBCHEM_MOLECULAR_WEIGHT>
560.7

> <PUBCHEM_OPENEYE_CAN_SMILES>
CC(C)(C)C1=CC(=NO1)NC(=O)NC2=CC=C(C=C2)C3=CN4C5=C(C=C(C=C5)OCCN6CCOCC6)SC4=N3

> <PUBCHEM_OPENEYE_ISO_SMILES>
CC(C)(C)C1=CC(=NO1)NC(=O)NC2=CC=C(C=C2)C3=CN4C5=C(C=C(C=C5)OCCN6CCOCC6)SC4=N3

> <PUBCHEM_CACTVS_TPSA>
134

> <PUBCHEM_MONOISOTOPIC_WEIGHT>
560.22057470

> <PUBCHEM_TOTAL_CHARGE>
0

> <PUBCHEM_HEAVY_ATOM_COUNT>
40

> <PUBCHEM_ATOM_DEF_STEREO_COUNT>
0

> <PUBCHEM_ATOM_UDEF_STEREO_COUNT>
0

> <PUBCHEM_BOND_DEF_STEREO_COUNT>
0

> <PUBCHEM_BOND_UDEF_STEREO_COUNT>
0

> <PUBCHEM_ISOTOPIC_ATOM_COUNT>
0

> <PUBCHEM_COMPONENT_COUNT>
1

> <PUBCHEM_CACTVS_TAUTO_COUNT>
-1

> <PUBCHEM_COORDINATE_TYPE>
1
5
255

> <PUBCHEM_BONDANNOTATIONS>
1  24  8
1  26  8
19  30  8
23  24  8
23  28  8
24  27  8
25  27  8
25  32  8
28  32  8
29  31  8
30  33  8
34  35  8
34  36  8
35  38  8
36  39  8
37  38  8
37  39  8
4  19  8
4  9  8
7  23  8
7  26  8
7  29  8
8  26  8
8  31  8
9  33  8

$$$$
5280961
  -OEChem-11282412102D

 30 32  0     0  0  0  0  0  0999 V2000
    5.5301   -1.4279    0.0000 O   0  0  0  0  0  0  0  0  0  0  0  0
    3.7817    1.6067    0.0000 O   0  0  0  0  0  0  0  0  0  0  0  0
    5.5301    1.5721    0.0000 O   0  0  0  0  0  0  0  0  0  0  0  0
    2.0000   -1.4521    0.0000 O   0  0  0  0  0  0  0  0  0  0  0  0
    9.8602    2.0721    0.0000 O   0  0  0  0  0  0  0  0  0  0  0  0
    4.6641    0.0721    0.0000 C   0  0  0  0  0  0  0  0  0  0  0  0
    6.3961    0.0721    0.0000 C   0  0  0  0  0  0  0  0  0  0  0  0
    4.6641   -0.9279    0.0000 C   0  0  0  0  0  0  0  0  0  0  0  0
    5.5301    0.5721    0.0000 C   0  0  0  0  0  0  0  0  0  0  0  0
    7.2622    0.5721    0.0000 C   0  0  0  0  0  0  0  0  0  0  0  0
    3.7702    0.6067    0.0000 C   0  0  0  0  0  0  0  0  0  0  0  0
    6.3961   -0.9279    0.0000 C   0  0  0  0  0  0  0  0  0  0  0  0
    3.7702   -1.4626    0.0000 C   0  0  0  0  0  0  0  0  0  0  0  0
    2.8641    0.0929    0.0000 C   0  0  0  0  0  0  0  0  0  0  0  0
    2.8641   -0.9487    0.0000 C   0  0  0  0  0  0  0  0  0  0  0  0
    7.2622    1.5721    0.0000 C   0  0  0  0  0  0  0  0  0  0  0  0
    8.1282    0.0721    0.0000 C   0  0  0  0  0  0  0  0  0  0  0  0
    8.1282    2.0721    0.0000 C   0  0  0  0  0  0  0  0  0  0  0  0
    8.9942    0.5721    0.0000 C   0  0  0  0  0  0  0  0  0  0  0  0
    8.9942    1.5721    0.0000 C   0  0  0  0  0  0  0  0  0  0  0  0
    6.9331   -1.2379    0.0000 H   0  0  0  0  0  0  0  0  0  0  0  0
    3.7773   -2.0826    0.0000 H   0  0  0  0  0  0  0  0  0  0  0  0
    2.3284    0.4050    0.0000 H   0  0  0  0  0  0  0  0  0  0  0  0
    6.7252    1.8821    0.0000 H   0  0  0  0  0  0  0  0  0  0  0  0
    8.1282   -0.5479    0.0000 H   0  0  0  0  0  0  0  0  0  0  0  0
    8.1282    2.6921    0.0000 H   0  0  0  0  0  0  0  0  0  0  0  0
    9.5312    0.2621    0.0000 H   0  0  0  0  0  0  0  0  0  0  0  0
    3.2484    1.9229    0.0000 H   0  0  0  0  0  0  0  0  0  0  0  0
    2.0024   -2.0721    0.0000 H   0  0  0  0  0  0  0  0  0  0  0  0
   10.3972    1.7621    0.0000 H   0  0  0  0  0  0  0  0  0  0  0  0
  1  8  1  0  0  0  0
  1 12  1  0  0  0  0
  2 11  1  0  0  0  0
  2 28  1  0  0  0  0
  3  9  2  0  0  0  0
  4 15  1  0  0  0  0
  4 29  1  0  0  0  0
  5 20  1  0  0  0  0
  5 30  1  0  0  0  0
  6  8  1  0  0  0  0
  6  9  1  0  0  0  0
  6 11  2  0  0  0  0
  7  9  1  0  0  0  0
  7 10  1  0  0  0  0
  7 12  2  0  0  0  0
  8 13  2  0  0  0  0
 10 16  2  0  0  0  0
 10 17  1  0  0  0  0
 11 14  1  0  0  0  0
 12 21  1  0  0  0  0
 13 15  1  0  0  0  0
 13 22  1  0  0  0  0
 14 15  2  0  0  0  0
 14 23  1  0  0  0  0
 16 18  1  0  0  0  0
 16 24  1  0  0  0  0
 17 19  2  0  0  0  0
 17 25  1  0  0  0  0
 18 20  2  0  0  0  0
 18 26  1  0  0  0  0
 19 20  1  0  0  0  0
 19 27  1  0  0  0  0
M  END
> <PUBCHEM_COMPOUND_CID>
5280961

> <PUBCHEM_COMPOUND_CANONICALIZED>
1

> <PUBCHEM_CACTVS_COMPLEXITY>
411

> <PUBCHEM_CACTVS_HBOND_ACCEPTOR>
5

> <PUBCHEM_CACTVS_HBOND_DONOR>
3

> <PUBCHEM_CACTVS_ROTATABLE_BOND>
1

> <PUBCHEM_CACTVS_SUBSKEYS>
AAADccBwOAAAAAAAAAAAAAAAAAAAAAAAAAAwYIAAAAAAAACBQAAAGgAACAAADASgmAIwBoAABgCIAqBSAAACCAAkIAAIiAEGCMgMJzaGNRqAcWAl4BUIuYeI7PzOIAAACAAIAABAAAAQABAAAAAAAAAAAA==

> <PUBCHEM_IUPAC_OPENEYE_NAME>
5,7-dihydroxy-3-(4-hydroxyphenyl)chromen-4-one

> <PUBCHEM_IUPAC_CAS_NAME>
5,7-dihydroxy-3-(4-hydroxyphenyl)-1-benzopyran-4-one

> <PUBCHEM_IUPAC_NAME_MARKUP>
5,7-dihydroxy-3-(4-hydroxyphenyl)chromen-4-one

> <PUBCHEM_IUPAC_NAME>
5,7-dihydroxy-3-(4-hydroxyphenyl)chromen-4-one

> <PUBCHEM_IUPAC_SYSTEMATIC_NAME>
3-(4-hydroxyphenyl)-5,7-bis(oxidanyl)chromen-4-one

> <PUBCHEM_IUPAC_TRADITIONAL_NAME>
5,7-dihydroxy-3-(4-hydroxyphenyl)chromone

> <PUBCHEM_IUPAC_INCHI>
InChI=1S/C15H10O5/c16-9-3-1-8(2-4-9)11-7-20-13-6-10(17)5-12(18)14(13)15(11)19/h1-7,16-18H

> <PUBCHEM_IUPAC_INCHIKEY>
TZBJGXHYKVUXJN-UHFFFAOYSA-N

> <PUBCHEM_XLOGP3_AA>
2.7

> <PUBCHEM_EXACT_MASS>
270.05282342

> <PUBCHEM_MOLECULAR_FORMULA>
C15H10O5

> <PUBCHEM_MOLECULAR_WEIGHT>
270.24

> <PUBCHEM_OPENEYE_CAN_SMILES>
C1=CC(=CC=C1C2=COC3=CC(=CC(=C3C2=O)O)O)O

> <PUBCHEM_OPENEYE_ISO_SMILES>
C1=CC(=CC=C1C2=COC3=CC(=CC(=C3C2=O)O)O)O

> <PUBCHEM_CACTVS_TPSA>
87

> <PUBCHEM_MONOISOTOPIC_WEIGHT>
270.05282342

> <PUBCHEM_TOTAL_CHARGE>
0

> <PUBCHEM_HEAVY_ATOM_COUNT>
20

> <PUBCHEM_ATOM_DEF_STEREO_COUNT>
0

> <PUBCHEM_ATOM_UDEF_STEREO_COUNT>
0

> <PUBCHEM_BOND_DEF_STEREO_COUNT>
0

> <PUBCHEM_BOND_UDEF_STEREO_COUNT>
0

> <PUBCHEM_ISOTOPIC_ATOM_COUNT>
0

> <PUBCHEM_COMPONENT_COUNT>
1

> <PUBCHEM_CACTVS_TAUTO_COUNT>
-1

> <PUBCHEM_COORDINATE_TYPE>
1
5
255

> <PUBCHEM_BONDANNOTATIONS>
1  12  8
1  8  8
10  16  8
10  17  8
11  14  8
13  15  8
14  15  8
16  18  8
17  19  8
18  20  8
19  20  8
6  11  8
6  8  8
6  9  8
7  12  8
7  9  8
8  13  8

$$$$
151194
  -OEChem-11282412102D

 40 43  0     0  0  0  0  0  0999 V2000
    8.1301   -4.0000    0.0000 Cl  0  0  0  0  0  0  0  0  0  0  0  0
    4.6660   -2.0000    0.0000 N   0  0  0  0  0  0  0  0  0  0  0  0
    5.5321    0.5000    0.0000 N   0  0  0  0  0  0  0  0  0  0  0  0
    5.5321   -0.5000    0.0000 N   0  0  0  0  0  0  0  0  0  0  0  0
    7.2641    3.5000    0.0000 N   0  0  0  0  0  0  0  0  0  0  0  0
    3.8000    0.5000    0.0000 C   0  0  0  0  0  0  0  0  0  0  0  0
    3.8000   -0.5000    0.0000 C   0  0  0  0  0  0  0  0  0  0  0  0
    4.6660    1.0000    0.0000 C   0  0  0  0  0  0  0  0  0  0  0  0
    4.6660    2.0000    0.0000 C   0  0  0  0  0  0  0  0  0  0  0  0
    4.6660   -1.0000    0.0000 C   0  0  0  0  0  0  0  0  0  0  0  0
    2.9061    1.0347    0.0000 C   0  0  0  0  0  0  0  0  0  0  0  0
    5.5321    2.5000    0.0000 C   0  0  0  0  0  0  0  0  0  0  0  0
    2.9061   -1.0347    0.0000 C   0  0  0  0  0  0  0  0  0  0  0  0
    2.0000    0.5208    0.0000 C   0  0  0  0  0  0  0  0  0  0  0  0
    2.0000   -0.5208    0.0000 C   0  0  0  0  0  0  0  0  0  0  0  0
    5.5321   -2.5000    0.0000 C   0  0  0  0  0  0  0  0  0  0  0  0
    6.3981    2.0000    0.0000 C   0  0  0  0  0  0  0  0  0  0  0  0
    5.5321    3.5000    0.0000 C   0  0  0  0  0  0  0  0  0  0  0  0
    5.5321   -3.5000    0.0000 C   0  0  0  0  0  0  0  0  0  0  0  0
    6.3981   -2.0000    0.0000 C   0  0  0  0  0  0  0  0  0  0  0  0
    7.2641    2.5000    0.0000 C   0  0  0  0  0  0  0  0  0  0  0  0
    6.3981    4.0000    0.0000 C   0  0  0  0  0  0  0  0  0  0  0  0
    6.3981   -4.0000    0.0000 C   0  0  0  0  0  0  0  0  0  0  0  0
    7.2641   -2.5000    0.0000 C   0  0  0  0  0  0  0  0  0  0  0  0
    7.2641   -3.5000    0.0000 C   0  0  0  0  0  0  0  0  0  0  0  0
    4.4540    2.5826    0.0000 H   0  0  0  0  0  0  0  0  0  0  0  0
    4.0555    1.8923    0.0000 H   0  0  0  0  0  0  0  0  0  0  0  0
    2.9132    1.6546    0.0000 H   0  0  0  0  0  0  0  0  0  0  0  0
    2.9132   -1.6546    0.0000 H   0  0  0  0  0  0  0  0  0  0  0  0
    4.1291   -2.3100    0.0000 H   0  0  0  0  0  0  0  0  0  0  0  0
    1.4643    0.8329    0.0000 H   0  0  0  0  0  0  0  0  0  0  0  0
    1.4643   -0.8329    0.0000 H   0  0  0  0  0  0  0  0  0  0  0  0
    6.3981    1.3800    0.0000 H   0  0  0  0  0  0  0  0  0  0  0  0
    4.9951    3.8100    0.0000 H   0  0  0  0  0  0  0  0  0  0  0  0
    4.9951   -3.8100    0.0000 H   0  0  0  0  0  0  0  0  0  0  0  0
    6.3981   -1.3800    0.0000 H   0  0  0  0  0  0  0  0  0  0  0  0
    7.8010    2.1900    0.0000 H   0  0  0  0  0  0  0  0  0  0  0  0
    6.3981    4.6200    0.0000 H   0  0  0  0  0  0  0  0  0  0  0  0
    6.3981   -4.6200    0.0000 H   0  0  0  0  0  0  0  0  0  0  0  0
    7.8010   -2.1900    0.0000 H   0  0  0  0  0  0  0  0  0  0  0  0
  1 25  1  0  0  0  0
  2 10  1  0  0  0  0
  2 16  1  0  0  0  0
  2 30  1  0  0  0  0
  3  4  1  0  0  0  0
  3  8  2  0  0  0  0
  4 10  2  0  0  0  0
  5 21  2  0  0  0  0
  5 22  1  0  0  0  0
  6  7  1  0  0  0  0
  6  8  1  0  0  0  0
  6 11  2  0  0  0  0
  7 10  1  0  0  0  0
  7 13  2  0  0  0  0
  8  9  1  0  0  0  0
  9 12  1  0  0  0  0
  9 26  1  0  0  0  0
  9 27  1  0  0  0  0
 11 14  1  0  0  0  0
 11 28  1  0  0  0  0
 12 17  2  0  0  0  0
 12 18  1  0  0  0  0
 13 15  1  0  0  0  0
 13 29  1  0  0  0  0
 14 15  2  0  0  0  0
 14 31  1  0  0  0  0
 15 32  1  0  0  0  0
 16 19  2  0  0  0  0
 16 20  1  0  0  0  0
 17 21  1  0  0  0  0
 17 33  1  0  0  0  0
 18 22  2  0  0  0  0
 18 34  1  0  0  0  0
 19 23  1  0  0  0  0
 19 35  1  0  0  0  0
 20 24  2  0  0  0  0
 20 36  1  0  0  0  0
 21 37  1  0  0  0  0
 22 38  1  0  0  0  0
 23 25  2  0  0  0  0
 23 39  1  0  0  0  0
 24 25  1  0  0  0  0
 24 40  1  0  0  0  0
M  END
> <PUBCHEM_COMPOUND_CID>
151194

> <PUBCHEM_COMPOUND_CANONICALIZED>
1

> <PUBCHEM_CACTVS_COMPLEXITY>
407

> <PUBCHEM_CACTVS_HBOND_ACCEPTOR>
4

> <PUBCHEM_CACTVS_HBOND_DONOR>
1

> <PUBCHEM_CACTVS_ROTATABLE_BOND>
4

> <PUBCHEM_CACTVS_SUBSKEYS>
AAADccB7gAAEAAAAAAAAAAAAAAAAAAAAAAA8eIEAAAAAAACx/AAAHAIYAAAADArBHiQ98NLIEACiAzZnZACShCIxByAd2CA4ZpiIIOLBm5GEoAhwmALIyCcQgMAOgABAAAAQAAAAAIAAACAAAAAAAAAAAA==

> <PUBCHEM_IUPAC_OPENEYE_NAME>
N-(4-chlorophenyl)-4-(4-pyridylmethyl)phthalazin-1-amine

> <PUBCHEM_IUPAC_CAS_NAME>
N-(4-chlorophenyl)-4-(pyridin-4-ylmethyl)-1-phthalazinamine

> <PUBCHEM_IUPAC_NAME_MARKUP>
<I>N</I>-(4-chlorophenyl)-4-(pyridin-4-ylmethyl)phthalazin-1-amine

> <PUBCHEM_IUPAC_NAME>
N-(4-chlorophenyl)-4-(pyridin-4-ylmethyl)phthalazin-1-amine

> <PUBCHEM_IUPAC_SYSTEMATIC_NAME>
N-(4-chlorophenyl)-4-(pyridin-4-ylmethyl)phthalazin-1-amine

> <PUBCHEM_IUPAC_TRADITIONAL_NAME>
(4-chlorophenyl)-[4-(4-pyridylmethyl)phthalazin-1-yl]amine

> <PUBCHEM_IUPAC_INCHI>
InChI=1S/C20H15ClN4/c21-15-5-7-16(8-6-15)23-20-18-4-2-1-3-17(18)19(24-25-20)13-14-9-11-22-12-10-14/h1-12H,13H2,(H,23,25)

> <PUBCHEM_IUPAC_INCHIKEY>
YCOYDOIWSSHVCK-UHFFFAOYSA-N

> <PUBCHEM_XLOGP3_AA>
4.5

> <PUBCHEM_EXACT_MASS>
346.0985242

> <PUBCHEM_MOLECULAR_FORMULA>
C20H15ClN4

> <PUBCHEM_MOLECULAR_WEIGHT>
346.8

> <PUBCHEM_OPENEYE_CAN_SMILES>
C1=CC=C2C(=C1)C(=NN=C2NC3=CC=C(C=C3)Cl)CC4=CC=NC=C4

> <PUBCHEM_OPENEYE_ISO_SMILES>
C1=CC=C2C(=C1)C(=NN=C2NC3=CC=C(C=C3)Cl)CC4=CC=NC=C4

> <PUBCHEM_CACTVS_TPSA>
50.7

> <PUBCHEM_MONOISOTOPIC_WEIGHT>
346.0985242

> <PUBCHEM_TOTAL_CHARGE>
0

> <PUBCHEM_HEAVY_ATOM_COUNT>
25

> <PUBCHEM_ATOM_DEF_STEREO_COUNT>
0

> <PUBCHEM_ATOM_UDEF_STEREO_COUNT>
0

> <PUBCHEM_BOND_DEF_STEREO_COUNT>
0

> <PUBCHEM_BOND_UDEF_STEREO_COUNT>
0

> <PUBCHEM_ISOTOPIC_ATOM_COUNT>
0

> <PUBCHEM_COMPONENT_COUNT>
1

> <PUBCHEM_CACTVS_TAUTO_COUNT>
-1

> <PUBCHEM_COORDINATE_TYPE>
1
5
255

> <PUBCHEM_BONDANNOTATIONS>
11  14  8
12  17  8
12  18  8
13  15  8
14  15  8
16  19  8
16  20  8
17  21  8
18  22  8
19  23  8
20  24  8
23  25  8
24  25  8
3  4  8
3  8  8
4  10  8
5  21  8
5  22  8
6  11  8
6  7  8
6  8  8
7  10  8
7  13  8

$$$$
71587496
  -OEChem-11282412102D

 59 58  0     1  0  0  0  0  0999 V2000
    8.8070   10.8100    0.0000 O   0  0  0  0  0  0  0  0  0  0  0  0
    7.9409    7.3100    0.0000 O   0  0  0  0  0  0  0  0  0  0  0  0
    5.3429    8.8100    0.0000 O   0  0  0  0  0  0  0  0  0  0  0  0
    7.0749   10.8100    0.0000 O   0  0  0  0  0  0  0  0  0  0  0  0
    4.4768    6.3100    0.0000 O   0  0  0  0  0  0  0  0  0  0  0  0
    4.4768    0.3100    0.0000 O   0  0  0  0  0  0  0  0  0  0  0  0
    7.0749    8.8100    0.0000 N   0  0  0  0  0  0  0  0  0  0  0  0
    6.2089    6.3100    0.0000 N   0  0  0  0  0  0  0  0  0  0  0  0
    6.2089    4.3100    0.0000 N   0  0  0  0  0  0  0  0  0  0  0  0
    8.8070    8.8100    0.0000 C   0  0  0  0  0  0  0  0  0  0  0  0
    9.6730    9.3100    0.0000 C   0  0  0  0  0  0  0  0  0  0  0  0
    7.9409    9.3100    0.0000 C   0  0  1  0  0  0  0  0  0  0  0  0
    6.2089    7.3100    0.0000 C   0  0  2  0  0  0  0  0  0  0  0  0
   10.5390    8.8100    0.0000 C   0  0  0  0  0  0  0  0  0  0  0  0
    9.6730   10.3100    0.0000 C   0  0  0  0  0  0  0  0  0  0  0  0
    7.0749    7.8100    0.0000 C   0  0  0  0  0  0  0  0  0  0  0  0
    5.3429    4.8100    0.0000 C   0  0  1  0  0  0  0  0  0  0  0  0
    7.9409   10.3100    0.0000 C   0  0  0  0  0  0  0  0  0  0  0  0
    4.4768    4.3100    0.0000 C   0  0  0  0  0  0  0  0  0  0  0  0
    5.3429    7.8100    0.0000 C   0  0  0  0  0  0  0  0  0  0  0  0
    5.3429    5.8100    0.0000 C   0  0  0  0  0  0  0  0  0  0  0  0
    4.4768    3.3100    0.0000 C   0  0  0  0  0  0  0  0  0  0  0  0
    5.3429    2.8100    0.0000 C   0  0  0  0  0  0  0  0  0  0  0  0
    3.6108    2.8100    0.0000 C   0  0  0  0  0  0  0  0  0  0  0  0
    5.3429    1.8100    0.0000 C   0  0  0  0  0  0  0  0  0  0  0  0
    3.6108    1.8100    0.0000 C   0  0  0  0  0  0  0  0  0  0  0  0
    4.4768    1.3100    0.0000 C   0  0  0  0  0  0  0  0  0  0  0  0
    0.5369    5.7150    0.0000 C   0  0  0  0  0  0  0  0  0  0  0  0
    8.4084    8.3351    0.0000 H   0  0  0  0  0  0  0  0  0  0  0  0
    9.2055    8.3351    0.0000 H   0  0  0  0  0  0  0  0  0  0  0  0
    9.6730    8.6900    0.0000 H   0  0  0  0  0  0  0  0  0  0  0  0
    7.4040    9.6200    0.0000 H   0  0  0  0  0  0  0  0  0  0  0  0
    6.7458    7.0000    0.0000 H   0  0  0  0  0  0  0  0  0  0  0  0
    6.5380    9.1200    0.0000 H   0  0  0  0  0  0  0  0  0  0  0  0
   10.2290    8.2731    0.0000 H   0  0  0  0  0  0  0  0  0  0  0  0
   11.0759    8.5000    0.0000 H   0  0  0  0  0  0  0  0  0  0  0  0
   10.8490    9.3469    0.0000 H   0  0  0  0  0  0  0  0  0  0  0  0
   10.2930   10.3100    0.0000 H   0  0  0  0  0  0  0  0  0  0  0  0
    9.6730   10.9300    0.0000 H   0  0  0  0  0  0  0  0  0  0  0  0
    9.0530   10.3100    0.0000 H   0  0  0  0  0  0  0  0  0  0  0  0
    5.3429    4.1900    0.0000 H   0  0  0  0  0  0  0  0  0  0  0  0
    6.7458    6.0000    0.0000 H   0  0  0  0  0  0  0  0  0  0  0  0
    4.2648    4.8926    0.0000 H   0  0  0  0  0  0  0  0  0  0  0  0
    3.8662    4.2023    0.0000 H   0  0  0  0  0  0  0  0  0  0  0  0
    4.7323    7.9177    0.0000 H   0  0  0  0  0  0  0  0  0  0  0  0
    5.1308    7.2274    0.0000 H   0  0  0  0  0  0  0  0  0  0  0  0
    6.7458    4.6200    0.0000 H   0  0  0  0  0  0  0  0  0  0  0  0
    6.2089    3.6900    0.0000 H   0  0  0  0  0  0  0  0  0  0  0  0
    5.8798    3.1200    0.0000 H   0  0  0  0  0  0  0  0  0  0  0  0
    3.0739    3.1200    0.0000 H   0  0  0  0  0  0  0  0  0  0  0  0
    8.8070   11.4300    0.0000 H   0  0  0  0  0  0  0  0  0  0  0  0
    4.8059    9.1200    0.0000 H   0  0  0  0  0  0  0  0  0  0  0  0
    5.8798    1.5000    0.0000 H   0  0  0  0  0  0  0  0  0  0  0  0
    3.0739    1.5000    0.0000 H   0  0  0  0  0  0  0  0  0  0  0  0
    3.9399    0.0000    0.0000 H   0  0  0  0  0  0  0  0  0  0  0  0
    1.0739    6.0250    0.0000 H   0  0  0  0  0  0  0  0  0  0  0  0
    0.0000    5.4050    0.0000 H   0  0  0  0  0  0  0  0  0  0  0  0
    0.2269    6.2519    0.0000 H   0  0  0  0  0  0  0  0  0  0  0  0
    0.8469    5.1781    0.0000 H   0  0  0  0  0  0  0  0  0  0  0  0
  1 18  1  0  0  0  0
  1 51  1  0  0  0  0
  2 16  2  0  0  0  0
  3 20  1  0  0  0  0
  3 52  1  0  0  0  0
  4 18  2  0  0  0  0
  5 21  2  0  0  0  0
  6 27  1  0  0  0  0
  6 55  1  0  0  0  0
 12  7  1  6  0  0  0
  7 16  1  0  0  0  0
  7 34  1  0  0  0  0
 13  8  1  1  0  0  0
  8 21  1  0  0  0  0
  8 42  1  0  0  0  0
 17  9  1  1  0  0  0
  9 47  1  0  0  0  0
  9 48  1  0  0  0  0
 10 11  1  0  0  0  0
 10 12  1  0  0  0  0
 10 29  1  0  0  0  0
 10 30  1  0  0  0  0
 11 14  1  0  0  0  0
 11 15  1  0  0  0  0
 11 31  1  0  0  0  0
 12 18  1  0  0  0  0
 12 32  1  0  0  0  0
 13 16  1  0  0  0  0
 13 20  1  0  0  0  0
 13 33  1  0  0  0  0
 14 35  1  0  0  0  0
 14 36  1  0  0  0  0
 14 37  1  0  0  0  0
 15 38  1  0  0  0  0
 15 39  1  0  0  0  0
 15 40  1  0  0  0  0
 17 19  1  0  0  0  0
 17 21  1  0  0  0  0
 17 41  1  0  0  0  0
 19 22  1  0  0  0  0
 19 43  1  0  0  0  0
 19 44  1  0  0  0  0
 20 45  1  0  0  0  0
 20 46  1  0  0  0  0
 22 23  2  0  0  0  0
 22 24  1  0  0  0  0
 23 25  1  0  0  0  0
 23 49  1  0  0  0  0
 24 26  2  0  0  0  0
 24 50  1  0  0  0  0
 25 27  2  0  0  0  0
 25 53  1  0  0  0  0
 26 27  1  0  0  0  0
 26 54  1  0  0  0  0
 28 56  1  0  0  0  0
 28 57  1  0  0  0  0
 28 58  1  0  0  0  0
 28 59  1  0  0  0  0
M  END
> <PUBCHEM_COMPOUND_CID>
71587496

> <PUBCHEM_COMPOUND_CANONICALIZED>
1

> <PUBCHEM_CACTVS_COMPLEXITY>
505

> <PUBCHEM_CACTVS_HBOND_ACCEPTOR>
7

> <PUBCHEM_CACTVS_HBOND_DONOR>
6

> <PUBCHEM_CACTVS_ROTATABLE_BOND>
10

> <PUBCHEM_CACTVS_SUBSKEYS>
AAADceB7OAAAAAAAAAAAAAAAAAAAAAAAAAAwAAAAAAAAAAABAAAAHgAQCAAADSzhmAYyDoLAAgCIAiHSGAACAAAgIAAIiIGOCIgKdjaCkTOUcAAm9hGYmAeYyKCOIAAAAAAAAABAAAAAAAAAAAAAAAAAAA==

> <PUBCHEM_IUPAC_OPENEYE_NAME>
(2S)-2-[[(2S)-2-[[(2S)-2-amino-3-(4-hydroxyphenyl)propanoyl]amino]-3-hydroxy-propanoyl]amino]-4-methyl-pentanoic acid;methane

> <PUBCHEM_IUPAC_CAS_NAME>
(2S)-2-[[(2S)-2-[[(2S)-2-amino-3-(4-hydroxyphenyl)-1-oxopropyl]amino]-3-hydroxy-1-oxopropyl]amino]-4-methylpentanoic acid;methane

> <PUBCHEM_IUPAC_NAME_MARKUP>
(2<I>S</I>)-2-[[(2<I>S</I>)-2-[[(2<I>S</I>)-2-amino-3-(4-hydroxyphenyl)propanoyl]amino]-3-hydroxypropanoyl]amino]-4-methylpentanoic acid;methane

> <PUBCHEM_IUPAC_NAME>
(2S)-2-[[(2S)-2-[[(2S)-2-amino-3-(4-hydroxyphenyl)propanoyl]amino]-3-hydroxypropanoyl]amino]-4-methylpentanoic acid;methane

> <PUBCHEM_IUPAC_SYSTEMATIC_NAME>
(2S)-2-[[(2S)-2-[[(2S)-2-azanyl-3-(4-hydroxyphenyl)propanoyl]amino]-3-oxidanyl-propanoyl]amino]-4-methyl-pentanoic acid;methane

> <PUBCHEM_IUPAC_TRADITIONAL_NAME>
(2S)-2-[[(2S)-2-[[(2S)-2-amino-3-(4-hydroxyphenyl)propanoyl]amino]-3-hydroxy-propanoyl]amino]-4-methyl-valeric acid;methane

> <PUBCHEM_IUPAC_INCHI>
InChI=1S/C18H27N3O6.CH4/c1-10(2)7-14(18(26)27)20-17(25)15(9-22)21-16(24)13(19)8-11-3-5-12(23)6-4-11;/h3-6,10,13-15,22-23H,7-9,19H2,1-2H3,(H,20,25)(H,21,24)(H,26,27);1H4/t13-,14-,15-;/m0./s1

> <PUBCHEM_IUPAC_INCHIKEY>
FNVKWTCPMNNIND-WDTSGDEMSA-N

> <PUBCHEM_EXACT_MASS>
397.22128572

> <PUBCHEM_MOLECULAR_FORMULA>
C19H31N3O6

> <PUBCHEM_MOLECULAR_WEIGHT>
397.5

> <PUBCHEM_OPENEYE_CAN_SMILES>
C.CC(C)CC(C(=O)O)NC(=O)C(CO)NC(=O)C(CC1=CC=C(C=C1)O)N

> <PUBCHEM_OPENEYE_ISO_SMILES>
C.CC(C)C[C@@H](C(=O)O)NC(=O)[C@H](CO)NC(=O)[C@H](CC1=CC=C(C=C1)O)N

> <PUBCHEM_CACTVS_TPSA>
162

> <PUBCHEM_MONOISOTOPIC_WEIGHT>
397.22128572

> <PUBCHEM_TOTAL_CHARGE>
0

> <PUBCHEM_HEAVY_ATOM_COUNT>
28

> <PUBCHEM_ATOM_DEF_STEREO_COUNT>
3

> <PUBCHEM_ATOM_UDEF_STEREO_COUNT>
0

> <PUBCHEM_BOND_DEF_STEREO_COUNT>
0

> <PUBCHEM_BOND_UDEF_STEREO_COUNT>
0

> <PUBCHEM_ISOTOPIC_ATOM_COUNT>
0

> <PUBCHEM_COMPONENT_COUNT>
2

> <PUBCHEM_CACTVS_TAUTO_COUNT>
8

> <PUBCHEM_COORDINATE_TYPE>
1
5
255

> <PUBCHEM_BONDANNOTATIONS>
22  23  8
22  24  8
23  25  8
24  26  8
25  27  8
26  27  8
12  7  6
13  8  5
17  9  5

$$$$
1401
  -OEChem-11282412102D

 79 81  0     0  0  0  0  0  0999 V2000
    6.3301   -2.2500    0.0000 O   0  0  0  0  0  0  0  0  0  0  0  0
    2.8660    0.7500    0.0000 O   0  0  0  0  0  0  0  0  0  0  0  0
    4.5981    3.7500    0.0000 O   0  0  0  0  0  0  0  0  0  0  0  0
   15.0583   -0.2908    0.0000 N   0  0  0  0  0  0  0  0  0  0  0  0
   10.7263   -0.7742    0.0000 N   0  0  0  0  0  0  0  0  0  0  0  0
    4.5981   -2.2500    0.0000 N   0  0  0  0  0  0  0  0  0  0  0  0
    5.4641   -0.7500    0.0000 N   0  0  0  0  0  0  0  0  0  0  0  0
    8.9561   -0.7847    0.0000 N   0  0  0  0  0  0  0  0  0  0  0  0
    7.1962   -0.7500    0.0000 N   0  0  0  0  0  0  0  0  0  0  0  0
    9.8622    0.7708    0.0000 N   0  0  0  0  0  0  0  0  0  0  0  0
   14.1904   -0.7875    0.0000 C   0  0  0  0  0  0  0  0  0  0  0  0
   13.3263   -0.2842    0.0000 C   0  0  0  0  0  0  0  0  0  0  0  0
   12.4583   -0.7808    0.0000 C   0  0  0  0  0  0  0  0  0  0  0  0
   15.9224   -0.7942    0.0000 C   0  0  0  0  0  0  0  0  0  0  0  0
   15.0622    0.7091    0.0000 C   0  0  0  0  0  0  0  0  0  0  0  0
   11.5942   -0.2775    0.0000 C   0  0  0  0  0  0  0  0  0  0  0  0
    4.5981   -3.2500    0.0000 C   0  0  0  0  0  0  0  0  0  0  0  0
   16.7903   -0.2975    0.0000 C   0  0  0  0  0  0  0  0  0  0  0  0
   15.9301    1.2058    0.0000 C   0  0  0  0  0  0  0  0  0  0  0  0
    4.5981   -4.2500    0.0000 C   0  0  0  0  0  0  0  0  0  0  0  0
    3.5981   -3.2500    0.0000 C   0  0  0  0  0  0  0  0  0  0  0  0
    5.5981   -3.2500    0.0000 C   0  0  0  0  0  0  0  0  0  0  0  0
    9.8622   -0.2708    0.0000 C   0  0  0  0  0  0  0  0  0  0  0  0
    6.3301    0.7500    0.0000 C   0  0  0  0  0  0  0  0  0  0  0  0
    6.3301   -0.2500    0.0000 C   0  0  0  0  0  0  0  0  0  0  0  0
    5.4641   -1.7500    0.0000 C   0  0  0  0  0  0  0  0  0  0  0  0
    8.0622    0.7500    0.0000 C   0  0  0  0  0  0  0  0  0  0  0  0
    8.0622   -0.2500    0.0000 C   0  0  0  0  0  0  0  0  0  0  0  0
    7.1962    1.2500    0.0000 C   0  0  0  0  0  0  0  0  0  0  0  0
    5.4641    1.2500    0.0000 C   0  0  0  0  0  0  0  0  0  0  0  0
    8.9561    1.2847    0.0000 C   0  0  0  0  0  0  0  0  0  0  0  0
    5.4641    2.2500    0.0000 C   0  0  0  0  0  0  0  0  0  0  0  0
    4.5981    0.7500    0.0000 C   0  0  0  0  0  0  0  0  0  0  0  0
    3.7320    1.2500    0.0000 C   0  0  0  0  0  0  0  0  0  0  0  0
    4.5981    2.7500    0.0000 C   0  0  0  0  0  0  0  0  0  0  0  0
    3.7320    2.2500    0.0000 C   0  0  0  0  0  0  0  0  0  0  0  0
    2.0000    1.2500    0.0000 C   0  0  0  0  0  0  0  0  0  0  0  0
    3.7320    4.2500    0.0000 C   0  0  0  0  0  0  0  0  0  0  0  0
   13.7900   -1.2609    0.0000 H   0  0  0  0  0  0  0  0  0  0  0  0
   14.5870   -1.2640    0.0000 H   0  0  0  0  0  0  0  0  0  0  0  0
   13.7266    0.1892    0.0000 H   0  0  0  0  0  0  0  0  0  0  0  0
   12.9296    0.1923    0.0000 H   0  0  0  0  0  0  0  0  0  0  0  0
   12.0580   -1.2542    0.0000 H   0  0  0  0  0  0  0  0  0  0  0  0
   12.8550   -1.2573    0.0000 H   0  0  0  0  0  0  0  0  0  0  0  0
   15.5220   -1.2676    0.0000 H   0  0  0  0  0  0  0  0  0  0  0  0
   16.3191   -1.2707    0.0000 H   0  0  0  0  0  0  0  0  0  0  0  0
   14.8523    1.2926    0.0000 H   0  0  0  0  0  0  0  0  0  0  0  0
   14.4512    0.6038    0.0000 H   0  0  0  0  0  0  0  0  0  0  0  0
   11.9946    0.1959    0.0000 H   0  0  0  0  0  0  0  0  0  0  0  0
   11.1975    0.1990    0.0000 H   0  0  0  0  0  0  0  0  0  0  0  0
   17.0983   -0.8356    0.0000 H   0  0  0  0  0  0  0  0  0  0  0  0
   17.3285    0.0104    0.0000 H   0  0  0  0  0  0  0  0  0  0  0  0
   16.4824    0.2406    0.0000 H   0  0  0  0  0  0  0  0  0  0  0  0
   16.2380    0.6677    0.0000 H   0  0  0  0  0  0  0  0  0  0  0  0
   16.4682    1.5137    0.0000 H   0  0  0  0  0  0  0  0  0  0  0  0
   15.6222    1.7439    0.0000 H   0  0  0  0  0  0  0  0  0  0  0  0
    3.9781   -4.2500    0.0000 H   0  0  0  0  0  0  0  0  0  0  0  0
    4.5981   -4.8700    0.0000 H   0  0  0  0  0  0  0  0  0  0  0  0
    5.2181   -4.2500    0.0000 H   0  0  0  0  0  0  0  0  0  0  0  0
    3.5981   -2.6300    0.0000 H   0  0  0  0  0  0  0  0  0  0  0  0
    2.9781   -3.2500    0.0000 H   0  0  0  0  0  0  0  0  0  0  0  0
    3.5981   -3.8700    0.0000 H   0  0  0  0  0  0  0  0  0  0  0  0
    5.5981   -3.8700    0.0000 H   0  0  0  0  0  0  0  0  0  0  0  0
    6.2181   -3.2500    0.0000 H   0  0  0  0  0  0  0  0  0  0  0  0
    5.5981   -2.6300    0.0000 H   0  0  0  0  0  0  0  0  0  0  0  0
   10.7239   -1.3942    0.0000 H   0  0  0  0  0  0  0  0  0  0  0  0
    4.0611   -1.9400    0.0000 H   0  0  0  0  0  0  0  0  0  0  0  0
    4.9272   -0.4400    0.0000 H   0  0  0  0  0  0  0  0  0  0  0  0
    7.1962    1.8700    0.0000 H   0  0  0  0  0  0  0  0  0  0  0  0
    8.9490    1.9046    0.0000 H   0  0  0  0  0  0  0  0  0  0  0  0
    6.0010    2.5600    0.0000 H   0  0  0  0  0  0  0  0  0  0  0  0
    4.5981    0.1300    0.0000 H   0  0  0  0  0  0  0  0  0  0  0  0
    3.1951    2.5600    0.0000 H   0  0  0  0  0  0  0  0  0  0  0  0
    2.3100    1.7869    0.0000 H   0  0  0  0  0  0  0  0  0  0  0  0
    1.4631    1.5600    0.0000 H   0  0  0  0  0  0  0  0  0  0  0  0
    1.6900    0.7131    0.0000 H   0  0  0  0  0  0  0  0  0  0  0  0
    4.0420    4.7869    0.0000 H   0  0  0  0  0  0  0  0  0  0  0  0
    3.1951    4.5600    0.0000 H   0  0  0  0  0  0  0  0  0  0  0  0
    3.4220    3.7131    0.0000 H   0  0  0  0  0  0  0  0  0  0  0  0
  1 26  2  0  0  0  0
  2 34  1  0  0  0  0
  2 37  1  0  0  0  0
  3 35  1  0  0  0  0
  3 38  1  0  0  0  0
  4 11  1  0  0  0  0
  4 14  1  0  0  0  0
  4 15  1  0  0  0  0
  5 16  1  0  0  0  0
  5 23  1  0  0  0  0
  5 66  1  0  0  0  0
  6 17  1  0  0  0  0
  6 26  1  0  0  0  0
  6 67  1  0  0  0  0
  7 25  1  0  0  0  0
  7 26  1  0  0  0  0
  7 68  1  0  0  0  0
  8 23  2  0  0  0  0
  8 28  1  0  0  0  0
  9 25  1  0  0  0  0
  9 28  2  0  0  0  0
 10 23  1  0  0  0  0
 10 31  2  0  0  0  0
 11 12  1  0  0  0  0
 11 39  1  0  0  0  0
 11 40  1  0  0  0  0
 12 13  1  0  0  0  0
 12 41  1  0  0  0  0
 12 42  1  0  0  0  0
 13 16  1  0  0  0  0
 13 43  1  0  0  0  0
 13 44  1  0  0  0  0
 14 18  1  0  0  0  0
 14 45  1  0  0  0  0
 14 46  1  0  0  0  0
 15 19  1  0  0  0  0
 15 47  1  0  0  0  0
 15 48  1  0  0  0  0
 16 49  1  0  0  0  0
 16 50  1  0  0  0  0
 17 20  1  0  0  0  0
 17 21  1  0  0  0  0
 17 22  1  0  0  0  0
 18 51  1  0  0  0  0
 18 52  1  0  0  0  0
 18 53  1  0  0  0  0
 19 54  1  0  0  0  0
 19 55  1  0  0  0  0
 19 56  1  0  0  0  0
 20 57  1  0  0  0  0
 20 58  1  0  0  0  0
 20 59  1  0  0  0  0
 21 60  1  0  0  0  0
 21 61  1  0  0  0  0
 21 62  1  0  0  0  0
 22 63  1  0  0  0  0
 22 64  1  0  0  0  0
 22 65  1  0  0  0  0
 24 25  2  0  0  0  0
 24 29  1  0  0  0  0
 24 30  1  0  0  0  0
 27 28  1  0  0  0  0
 27 29  2  0  0  0  0
 27 31  1  0  0  0  0
 29 69  1  0  0  0  0
 30 32  2  0  0  0  0
 30 33  1  0  0  0  0
 31 70  1  0  0  0  0
 32 35  1  0  0  0  0
 32 71  1  0  0  0  0
 33 34  2  0  0  0  0
 33 72  1  0  0  0  0
 34 36  1  0  0  0  0
 35 36  2  0  0  0  0
 36 73  1  0  0  0  0
 37 74  1  0  0  0  0
 37 75  1  0  0  0  0
 37 76  1  0  0  0  0
 38 77  1  0  0  0  0
 38 78  1  0  0  0  0
 38 79  1  0  0  0  0
M  END
> <PUBCHEM_COMPOUND_CID>
1401

> <PUBCHEM_COMPOUND_CANONICALIZED>
1

> <PUBCHEM_CACTVS_COMPLEXITY>
690

> <PUBCHEM_CACTVS_HBOND_ACCEPTOR>
8

> <PUBCHEM_CACTVS_HBOND_DONOR>
3

> <PUBCHEM_CACTVS_ROTATABLE_BOND>
13

> <PUBCHEM_CACTVS_SUBSKEYS>
AAADcfB7sAAAAAAAAAAAAAAAAAAAAAAAAAA8WIAAAAAAAACx/AAAHgAQAAAADIzBmwY/tt/IFACoAjJndACCiCkxIKAB2KAuTJiML+LE+duENCht1RfI6CeQ8P4OgAABCAAAAAAAAAIQAAAAAAAAAAAAAA==

> <PUBCHEM_IUPAC_OPENEYE_NAME>
1-tert-butyl-3-[2-[4-(diethylamino)butylamino]-6-(3,5-dimethoxyphenyl)pyrido[2,3-d]pyrimidin-7-yl]urea

> <PUBCHEM_IUPAC_CAS_NAME>
1-tert-butyl-3-[2-[4-(diethylamino)butylamino]-6-(3,5-dimethoxyphenyl)-7-pyrido[2,3-d]pyrimidinyl]urea

> <PUBCHEM_IUPAC_NAME_MARKUP>
1-<I>tert</I>-butyl-3-[2-[4-(diethylamino)butylamino]-6-(3,5-dimethoxyphenyl)pyrido[2,3-d]pyrimidin-7-yl]urea

> <PUBCHEM_IUPAC_NAME>
1-tert-butyl-3-[2-[4-(diethylamino)butylamino]-6-(3,5-dimethoxyphenyl)pyrido[2,3-d]pyrimidin-7-yl]urea

> <PUBCHEM_IUPAC_SYSTEMATIC_NAME>
1-tert-butyl-3-[2-[4-(diethylamino)butylamino]-6-(3,5-dimethoxyphenyl)pyrido[2,3-d]pyrimidin-7-yl]urea

> <PUBCHEM_IUPAC_TRADITIONAL_NAME>
1-tert-butyl-3-[2-[4-(diethylamino)butylamino]-6-(3,5-dimethoxyphenyl)pyrido[2,3-d]pyrimidin-7-yl]urea

> <PUBCHEM_IUPAC_INCHI>
InChI=1S/C28H41N7O3/c1-8-35(9-2)13-11-10-12-29-26-30-18-20-16-23(19-14-21(37-6)17-22(15-19)38-7)25(31-24(20)32-26)33-27(36)34-28(3,4)5/h14-18H,8-13H2,1-7H3,(H3,29,30,31,32,33,34,36)

> <PUBCHEM_IUPAC_INCHIKEY>
DXCUKNQANPLTEJ-UHFFFAOYSA-N

> <PUBCHEM_XLOGP3_AA>
4.5

> <PUBCHEM_EXACT_MASS>
523.32708820

> <PUBCHEM_MOLECULAR_FORMULA>
C28H41N7O3

> <PUBCHEM_MOLECULAR_WEIGHT>
523.7

> <PUBCHEM_OPENEYE_CAN_SMILES>
CCN(CC)CCCCNC1=NC2=NC(=C(C=C2C=N1)C3=CC(=CC(=C3)OC)OC)NC(=O)NC(C)(C)C

> <PUBCHEM_OPENEYE_ISO_SMILES>
CCN(CC)CCCCNC1=NC2=NC(=C(C=C2C=N1)C3=CC(=CC(=C3)OC)OC)NC(=O)NC(C)(C)C

> <PUBCHEM_CACTVS_TPSA>
114

> <PUBCHEM_MONOISOTOPIC_WEIGHT>
523.32708820

> <PUBCHEM_TOTAL_CHARGE>
0

> <PUBCHEM_HEAVY_ATOM_COUNT>
38

> <PUBCHEM_ATOM_DEF_STEREO_COUNT>
0

> <PUBCHEM_ATOM_UDEF_STEREO_COUNT>
0

> <PUBCHEM_BOND_DEF_STEREO_COUNT>
0

> <PUBCHEM_BOND_UDEF_STEREO_COUNT>
0

> <PUBCHEM_ISOTOPIC_ATOM_COUNT>
0

> <PUBCHEM_COMPONENT_COUNT>
1

> <PUBCHEM_CACTVS_TAUTO_COUNT>
-1

> <PUBCHEM_COORDINATE_TYPE>
1
5
255

> <PUBCHEM_BONDANNOTATIONS>
10  23  8
10  31  8
24  25  8
24  29  8
27  28  8
27  29  8
27  31  8
30  32  8
30  33  8
32  35  8
33  34  8
34  36  8
35  36  8
8  23  8
8  28  8
9  25  8
9  28  8

$$$$
9549295
  -OEChem-11282412102D

 50 52  0     0  0  0  0  0  0999 V2000
    8.9443    0.9725    0.0000 Cl  0  0  0  0  0  0  0  0  0  0  0  0
    5.4804    1.0125    0.0000 O   0  0  0  0  0  0  0  0  0  0  0  0
    2.0000    2.0471    0.0000 O   0  0  0  0  0  0  0  0  0  0  0  0
    2.0000    4.0471    0.0000 O   0  0  0  0  0  0  0  0  0  0  0  0
    8.0379   -2.5173    0.0000 O   0  0  0  0  0  0  0  0  0  0  0  0
    9.7698   -2.5373    0.0000 N   0  0  0  0  0  0  0  0  0  0  0  0
    8.9212   -1.0274    0.0000 N   0  0  0  0  0  0  0  0  0  0  0  0
    5.4920    4.0818    0.0000 N   0  0  0  0  0  0  0  0  0  0  0  0
    6.3981    2.5263    0.0000 N   0  0  0  0  0  0  0  0  0  0  0  0
    4.5981    2.5471    0.0000 C   0  0  0  0  0  0  0  0  0  0  0  0
    4.5981    3.5471    0.0000 C   0  0  0  0  0  0  0  0  0  0  0  0
    3.7320    2.0471    0.0000 C   0  0  0  0  0  0  0  0  0  0  0  0
    5.4920    2.0125    0.0000 C   0  0  0  0  0  0  0  0  0  0  0  0
    9.7583   -3.5372    0.0000 C   0  0  0  0  0  0  0  0  0  0  0  0
    2.8660    2.5471    0.0000 C   0  0  0  0  0  0  0  0  0  0  0  0
    2.8660    3.5471    0.0000 C   0  0  0  0  0  0  0  0  0  0  0  0
    3.7320    4.0471    0.0000 C   0  0  0  0  0  0  0  0  0  0  0  0
   10.6184   -4.0472    0.0000 C   0  0  0  0  0  0  0  0  0  0  0  0
    6.3406    0.5026    0.0000 C   0  0  0  0  0  0  0  0  0  0  0  0
    8.0610   -0.5174    0.0000 C   0  0  0  0  0  0  0  0  0  0  0  0
    7.2124    0.9925    0.0000 C   0  0  0  0  0  0  0  0  0  0  0  0
    6.3291   -0.4974    0.0000 C   0  0  0  0  0  0  0  0  0  0  0  0
    8.0726    0.4825    0.0000 C   0  0  0  0  0  0  0  0  0  0  0  0
    7.1893   -1.0074    0.0000 C   0  0  0  0  0  0  0  0  0  0  0  0
    8.9096   -2.0273    0.0000 C   0  0  0  0  0  0  0  0  0  0  0  0
   10.6069   -5.0471    0.0000 C   0  0  0  0  0  0  0  0  0  0  0  0
    6.3981    3.5680    0.0000 C   0  0  0  0  0  0  0  0  0  0  0  0
    2.0000    1.0471    0.0000 C   0  0  0  0  0  0  0  0  0  0  0  0
    2.0000    5.0471    0.0000 C   0  0  0  0  0  0  0  0  0  0  0  0
    3.7320    1.4271    0.0000 H   0  0  0  0  0  0  0  0  0  0  0  0
    9.1490   -3.4225    0.0000 H   0  0  0  0  0  0  0  0  0  0  0  0
    9.5395   -4.1173    0.0000 H   0  0  0  0  0  0  0  0  0  0  0  0
   11.2277   -4.1619    0.0000 H   0  0  0  0  0  0  0  0  0  0  0  0
   10.8372   -3.4671    0.0000 H   0  0  0  0  0  0  0  0  0  0  0  0
    3.7320    4.6671    0.0000 H   0  0  0  0  0  0  0  0  0  0  0  0
   10.3103   -2.2335    0.0000 H   0  0  0  0  0  0  0  0  0  0  0  0
    7.2196    1.6125    0.0000 H   0  0  0  0  0  0  0  0  0  0  0  0
    5.7886   -0.8011    0.0000 H   0  0  0  0  0  0  0  0  0  0  0  0
    7.1821   -1.6273    0.0000 H   0  0  0  0  0  0  0  0  0  0  0  0
    9.4617   -0.7236    0.0000 H   0  0  0  0  0  0  0  0  0  0  0  0
    9.9869   -5.0400    0.0000 H   0  0  0  0  0  0  0  0  0  0  0  0
   10.5997   -5.6671    0.0000 H   0  0  0  0  0  0  0  0  0  0  0  0
   11.2268   -5.0543    0.0000 H   0  0  0  0  0  0  0  0  0  0  0  0
    6.9338    3.8800    0.0000 H   0  0  0  0  0  0  0  0  0  0  0  0
    1.3800    1.0471    0.0000 H   0  0  0  0  0  0  0  0  0  0  0  0
    2.0000    0.4271    0.0000 H   0  0  0  0  0  0  0  0  0  0  0  0
    2.6200    1.0471    0.0000 H   0  0  0  0  0  0  0  0  0  0  0  0
    2.6200    5.0471    0.0000 H   0  0  0  0  0  0  0  0  0  0  0  0
    2.0000    5.6671    0.0000 H   0  0  0  0  0  0  0  0  0  0  0  0
    1.3800    5.0471    0.0000 H   0  0  0  0  0  0  0  0  0  0  0  0
  1 23  1  0  0  0  0
  2 13  1  0  0  0  0
  2 19  1  0  0  0  0
  3 15  1  0  0  0  0
  3 28  1  0  0  0  0
  4 16  1  0  0  0  0
  4 29  1  0  0  0  0
  5 25  2  0  0  0  0
  6 14  1  0  0  0  0
  6 25  1  0  0  0  0
  6 36  1  0  0  0  0
  7 20  1  0  0  0  0
  7 25  1  0  0  0  0
  7 40  1  0  0  0  0
  8 11  1  0  0  0  0
  8 27  2  0  0  0  0
  9 13  2  0  0  0  0
  9 27  1  0  0  0  0
 10 11  1  0  0  0  0
 10 12  2  0  0  0  0
 10 13  1  0  0  0  0
 11 17  2  0  0  0  0
 12 15  1  0  0  0  0
 12 30  1  0  0  0  0
 14 18  1  0  0  0  0
 14 31  1  0  0  0  0
 14 32  1  0  0  0  0
 15 16  2  0  0  0  0
 16 17  1  0  0  0  0
 17 35  1  0  0  0  0
 18 26  1  0  0  0  0
 18 33  1  0  0  0  0
 18 34  1  0  0  0  0
 19 21  2  0  0  0  0
 19 22  1  0  0  0  0
 20 23  2  0  0  0  0
 20 24  1  0  0  0  0
 21 23  1  0  0  0  0
 21 37  1  0  0  0  0
 22 24  2  0  0  0  0
 22 38  1  0  0  0  0
 24 39  1  0  0  0  0
 26 41  1  0  0  0  0
 26 42  1  0  0  0  0
 26 43  1  0  0  0  0
 27 44  1  0  0  0  0
 28 45  1  0  0  0  0
 28 46  1  0  0  0  0
 28 47  1  0  0  0  0
 29 48  1  0  0  0  0
 29 49  1  0  0  0  0
 29 50  1  0  0  0  0
M  END
> <PUBCHEM_COMPOUND_CID>
9549295

> <PUBCHEM_COMPOUND_CANONICALIZED>
1

> <PUBCHEM_CACTVS_COMPLEXITY>
529

> <PUBCHEM_CACTVS_HBOND_ACCEPTOR>
6

> <PUBCHEM_CACTVS_HBOND_DONOR>
2

> <PUBCHEM_CACTVS_ROTATABLE_BOND>
7

> <PUBCHEM_CACTVS_SUBSKEYS>
AAADceB7uAAEAAAAAAAAAAAAAAAAAAAAAAA8YIAAAAAAAACx9AAAHgIQAAAADA7BniY31vbIFACoAyRjdACCiCkxJ6AJ2KA+7piNLqLF+9vOPCru1htK6Cfw8D8OIEABAwACQBBAgAIGAASAIAAAAAAAAA==

> <PUBCHEM_IUPAC_OPENEYE_NAME>
1-[2-chloro-4-(6,7-dimethoxyquinazolin-4-yl)oxy-phenyl]-3-propyl-urea

> <PUBCHEM_IUPAC_CAS_NAME>
1-[2-chloro-4-[(6,7-dimethoxy-4-quinazolinyl)oxy]phenyl]-3-propylurea

> <PUBCHEM_IUPAC_NAME_MARKUP>
1-[2-chloro-4-(6,7-dimethoxyquinazolin-4-yl)oxyphenyl]-3-propylurea

> <PUBCHEM_IUPAC_NAME>
1-[2-chloro-4-(6,7-dimethoxyquinazolin-4-yl)oxyphenyl]-3-propylurea

> <PUBCHEM_IUPAC_SYSTEMATIC_NAME>
1-[2-chloranyl-4-(6,7-dimethoxyquinazolin-4-yl)oxy-phenyl]-3-propyl-urea

> <PUBCHEM_IUPAC_TRADITIONAL_NAME>
1-[2-chloro-4-(6,7-dimethoxyquinazolin-4-yl)oxy-phenyl]-3-propyl-urea

> <PUBCHEM_IUPAC_INCHI>
InChI=1S/C20H21ClN4O4/c1-4-7-22-20(26)25-15-6-5-12(8-14(15)21)29-19-13-9-17(27-2)18(28-3)10-16(13)23-11-24-19/h5-6,8-11H,4,7H2,1-3H3,(H2,22,25,26)

> <PUBCHEM_IUPAC_INCHIKEY>
VPBYZLCHOKSGRX-UHFFFAOYSA-N

> <PUBCHEM_XLOGP3_AA>
3.9

> <PUBCHEM_EXACT_MASS>
416.1251329

> <PUBCHEM_MOLECULAR_FORMULA>
C20H21ClN4O4

> <PUBCHEM_MOLECULAR_WEIGHT>
416.9

> <PUBCHEM_OPENEYE_CAN_SMILES>
CCCNC(=O)NC1=C(C=C(C=C1)OC2=NC=NC3=CC(=C(C=C32)OC)OC)Cl

> <PUBCHEM_OPENEYE_ISO_SMILES>
CCCNC(=O)NC1=C(C=C(C=C1)OC2=NC=NC3=CC(=C(C=C32)OC)OC)Cl

> <PUBCHEM_CACTVS_TPSA>
94.6

> <PUBCHEM_MONOISOTOPIC_WEIGHT>
416.1251329

> <PUBCHEM_TOTAL_CHARGE>
0

> <PUBCHEM_HEAVY_ATOM_COUNT>
29

> <PUBCHEM_ATOM_DEF_STEREO_COUNT>
0

> <PUBCHEM_ATOM_UDEF_STEREO_COUNT>
0

> <PUBCHEM_BOND_DEF_STEREO_COUNT>
0

> <PUBCHEM_BOND_UDEF_STEREO_COUNT>
0

> <PUBCHEM_ISOTOPIC_ATOM_COUNT>
0

> <PUBCHEM_COMPONENT_COUNT>
1

> <PUBCHEM_CACTVS_TAUTO_COUNT>
3

> <PUBCHEM_COORDINATE_TYPE>
1
5
255

> <PUBCHEM_BONDANNOTATIONS>
10  11  8
10  12  8
10  13  8
11  17  8
12  15  8
15  16  8
16  17  8
19  21  8
19  22  8
20  23  8
20  24  8
21  23  8
22  24  8
8  11  8
8  27  8
9  13  8
9  27  8

$$$$
66555680
  -OEChem-11282412102D

 43 47  0     0  0  0  0  0  0999 V2000
    4.5028   -1.6685    0.0000 O   0  0  0  0  0  0  0  0  0  0  0  0
    7.4868   -0.9869    0.0000 N   0  0  0  0  0  0  0  0  0  0  0  0
    3.3277    0.0532    0.0000 N   0  0  0  0  0  0  0  0  0  0  0  0
   11.0311   -1.1821    0.0000 N   0  0  0  0  0  0  0  0  0  0  0  0
    7.3822    0.0077    0.0000 N   0  0  0  0  0  0  0  0  0  0  0  0
   11.0311   -2.7916    0.0000 N   0  0  0  0  0  0  0  0  0  0  0  0
    6.3653   -2.3717    0.0000 N   0  0  0  0  0  0  0  0  0  0  0  0
    8.3528   -1.4868    0.0000 C   0  0  0  0  0  0  0  0  0  0  0  0
    5.9041   -0.6504    0.0000 C   0  0  0  0  0  0  0  0  0  0  0  0
    4.3218    0.0540    0.0000 C   0  0  0  0  0  0  0  0  0  0  0  0
   10.0849   -1.4868    0.0000 C   0  0  0  0  0  0  0  0  0  0  0  0
    6.5732   -1.3936    0.0000 C   0  0  0  0  0  0  0  0  0  0  0  0
    3.0181    0.9978    0.0000 C   0  0  0  0  0  0  0  0  0  0  0  0
    3.8271    1.5856    0.0000 C   0  0  0  0  0  0  0  0  0  0  0  0
    9.2188   -0.9869    0.0000 C   0  0  0  0  0  0  0  0  0  0  0  0
   10.0849   -2.4868    0.0000 C   0  0  0  0  0  0  0  0  0  0  0  0
    4.9096   -0.7550    0.0000 C   0  0  0  0  0  0  0  0  0  0  0  0
    4.6298    0.9992    0.0000 C   0  0  0  0  0  0  0  0  0  0  0  0
    8.3528   -2.4868    0.0000 C   0  0  0  0  0  0  0  0  0  0  0  0
    9.2188   -2.9868    0.0000 C   0  0  0  0  0  0  0  0  0  0  0  0
    6.4041    0.2156    0.0000 C   0  0  0  0  0  0  0  0  0  0  0  0
   11.6147   -1.9868    0.0000 C   0  0  0  0  0  0  0  0  0  0  0  0
    2.1045    1.4046    0.0000 C   0  0  0  0  0  0  0  0  0  0  0  0
    3.7226    2.5801    0.0000 C   0  0  0  0  0  0  0  0  0  0  0  0
    2.0000    2.3991    0.0000 C   0  0  0  0  0  0  0  0  0  0  0  0
    2.8090    2.9868    0.0000 C   0  0  0  0  0  0  0  0  0  0  0  0
   12.6147   -1.9868    0.0000 C   0  0  0  0  0  0  0  0  0  0  0  0
    9.2188   -0.3669    0.0000 H   0  0  0  0  0  0  0  0  0  0  0  0
    2.9642   -0.4490    0.0000 H   0  0  0  0  0  0  0  0  0  0  0  0
    5.2198    1.1898    0.0000 H   0  0  0  0  0  0  0  0  0  0  0  0
    7.8159   -2.7968    0.0000 H   0  0  0  0  0  0  0  0  0  0  0  0
    9.2188   -3.6068    0.0000 H   0  0  0  0  0  0  0  0  0  0  0  0
   11.2237   -0.5928    0.0000 H   0  0  0  0  0  0  0  0  0  0  0  0
    6.1519    0.7820    0.0000 H   0  0  0  0  0  0  0  0  0  0  0  0
    1.6029    1.0401    0.0000 H   0  0  0  0  0  0  0  0  0  0  0  0
    4.2242    2.9445    0.0000 H   0  0  0  0  0  0  0  0  0  0  0  0
    5.7757   -2.5633    0.0000 H   0  0  0  0  0  0  0  0  0  0  0  0
    6.8261   -2.7866    0.0000 H   0  0  0  0  0  0  0  0  0  0  0  0
    1.4336    2.6512    0.0000 H   0  0  0  0  0  0  0  0  0  0  0  0
    2.7442    3.6035    0.0000 H   0  0  0  0  0  0  0  0  0  0  0  0
   12.6147   -2.6068    0.0000 H   0  0  0  0  0  0  0  0  0  0  0  0
   13.2347   -1.9868    0.0000 H   0  0  0  0  0  0  0  0  0  0  0  0
   12.6147   -1.3668    0.0000 H   0  0  0  0  0  0  0  0  0  0  0  0
  1 17  2  0  0  0  0
  2  5  1  0  0  0  0
  2  8  1  0  0  0  0
  2 12  1  0  0  0  0
  3 10  1  0  0  0  0
  3 13  1  0  0  0  0
  3 29  1  0  0  0  0
  4 11  1  0  0  0  0
  4 22  1  0  0  0  0
  4 33  1  0  0  0  0
  5 21  2  0  0  0  0
  6 16  1  0  0  0  0
  6 22  2  0  0  0  0
  7 12  1  0  0  0  0
  7 37  1  0  0  0  0
  7 38  1  0  0  0  0
  8 15  2  0  0  0  0
  8 19  1  0  0  0  0
  9 12  2  0  0  0  0
  9 17  1  0  0  0  0
  9 21  1  0  0  0  0
 10 17  1  0  0  0  0
 10 18  2  0  0  0  0
 11 15  1  0  0  0  0
 11 16  2  0  0  0  0
 13 14  1  0  0  0  0
 13 23  2  0  0  0  0
 14 18  1  0  0  0  0
 14 24  2  0  0  0  0
 15 28  1  0  0  0  0
 16 20  1  0  0  0  0
 18 30  1  0  0  0  0
 19 20  2  0  0  0  0
 19 31  1  0  0  0  0
 20 32  1  0  0  0  0
 21 34  1  0  0  0  0
 22 27  1  0  0  0  0
 23 25  1  0  0  0  0
 23 35  1  0  0  0  0
 24 26  1  0  0  0  0
 24 36  1  0  0  0  0
 25 26  2  0  0  0  0
 25 39  1  0  0  0  0
 26 40  1  0  0  0  0
 27 41  1  0  0  0  0
 27 42  1  0  0  0  0
 27 43  1  0  0  0  0
M  END
> <PUBCHEM_COMPOUND_CID>
66555680

> <PUBCHEM_COMPOUND_CANONICALIZED>
1

> <PUBCHEM_CACTVS_COMPLEXITY>
573

> <PUBCHEM_CACTVS_HBOND_ACCEPTOR>
4

> <PUBCHEM_CACTVS_HBOND_DONOR>
3

> <PUBCHEM_CACTVS_ROTATABLE_BOND>
3

> <PUBCHEM_CACTVS_SUBSKEYS>
AAADceB7oAAAAAAAAAAAAAAAAAAAAWLFgAAwYAAAAAAAAFgB/gAAHgAYAAAADAzBnwQ/8PbJkACqA7Z3ZACShC+nkqAdmSGwdNiIaPrA3fGUpYh4mALIyecYicCeAACAAAQCACAAAQAACAQAQAAAAAAAAA==

> <PUBCHEM_IUPAC_OPENEYE_NAME>
[5-amino-1-(2-methyl-3H-benzimidazol-5-yl)pyrazol-4-yl]-(1H-indol-2-yl)methanone

> <PUBCHEM_IUPAC_CAS_NAME>
[5-amino-1-(2-methyl-3H-benzimidazol-5-yl)-4-pyrazolyl]-(1H-indol-2-yl)methanone

> <PUBCHEM_IUPAC_NAME_MARKUP>
[5-amino-1-(2-methyl-3<I>H</I>-benzimidazol-5-yl)pyrazol-4-yl]-(1<I>H</I>-indol-2-yl)methanone

> <PUBCHEM_IUPAC_NAME>
[5-amino-1-(2-methyl-3H-benzimidazol-5-yl)pyrazol-4-yl]-(1H-indol-2-yl)methanone

> <PUBCHEM_IUPAC_SYSTEMATIC_NAME>
[5-azanyl-1-(2-methyl-3H-benzimidazol-5-yl)pyrazol-4-yl]-(1H-indol-2-yl)methanone

> <PUBCHEM_IUPAC_TRADITIONAL_NAME>
[5-amino-1-(2-methyl-3H-benzimidazol-5-yl)pyrazol-4-yl]-(1H-indol-2-yl)methanone

> <PUBCHEM_IUPAC_INCHI>
InChI=1S/C20H16N6O/c1-11-23-16-7-6-13(9-17(16)24-11)26-20(21)14(10-22-26)19(27)18-8-12-4-2-3-5-15(12)25-18/h2-10,25H,21H2,1H3,(H,23,24)

> <PUBCHEM_IUPAC_INCHIKEY>
BEMNJULZEQTDJY-UHFFFAOYSA-N

> <PUBCHEM_XLOGP3_AA>
3.9

> <PUBCHEM_EXACT_MASS>
356.13855916

> <PUBCHEM_MOLECULAR_FORMULA>
C20H16N6O

> <PUBCHEM_MOLECULAR_WEIGHT>
356.4

> <PUBCHEM_OPENEYE_CAN_SMILES>
CC1=NC2=C(N1)C=C(C=C2)N3C(=C(C=N3)C(=O)C4=CC5=CC=CC=C5N4)N

> <PUBCHEM_OPENEYE_ISO_SMILES>
CC1=NC2=C(N1)C=C(C=C2)N3C(=C(C=N3)C(=O)C4=CC5=CC=CC=C5N4)N

> <PUBCHEM_CACTVS_TPSA>
105

> <PUBCHEM_MONOISOTOPIC_WEIGHT>
356.13855916

> <PUBCHEM_TOTAL_CHARGE>
0

> <PUBCHEM_HEAVY_ATOM_COUNT>
27

> <PUBCHEM_ATOM_DEF_STEREO_COUNT>
0

> <PUBCHEM_ATOM_UDEF_STEREO_COUNT>
0

> <PUBCHEM_BOND_DEF_STEREO_COUNT>
0

> <PUBCHEM_BOND_UDEF_STEREO_COUNT>
0

> <PUBCHEM_ISOTOPIC_ATOM_COUNT>
0

> <PUBCHEM_COMPONENT_COUNT>
1

> <PUBCHEM_CACTVS_TAUTO_COUNT>
-1

> <PUBCHEM_COORDINATE_TYPE>
1
5
255

> <PUBCHEM_BONDANNOTATIONS>
10  18  8
11  15  8
11  16  8
13  14  8
13  23  8
14  18  8
14  24  8
16  20  8
19  20  8
2  12  8
2  5  8
23  25  8
24  26  8
25  26  8
3  10  8
3  13  8
4  11  8
4  22  8
5  21  8
6  16  8
6  22  8
8  15  8
8  19  8
9  12  8
9  21  8

$$$$
129103609
  -OEChem-11282412102D

 49 53  0     1  0  0  0  0  0999 V2000
    9.6422    2.8070    0.0000 F   0  0  0  0  0  0  0  0  0  0  0  0
    3.1788   -1.8451    0.0000 O   0  0  0  0  0  0  0  0  0  0  0  0
    5.5041    2.5038    0.0000 N   0  0  3  0  0  0  0  0  0  0  0  0
    4.4691    1.2439    0.0000 N   0  0  0  0  0  0  0  0  0  0  0  0
    8.6605    0.3427    0.0000 N   0  0  0  0  0  0  0  0  0  0  0  0
    4.8069   -1.7397    0.0000 N   0  0  0  0  0  0  0  0  0  0  0  0
    2.7370    1.2439    0.0000 N   0  0  0  0  0  0  0  0  0  0  0  0
    2.0000    0.5768    0.0000 N   0  0  0  0  0  0  0  0  0  0  0  0
    6.5384    2.2409    0.0000 C   0  0  2  0  0  0  0  0  0  0  0  0
    6.5708    1.2487    0.0000 C   0  0  0  0  0  0  0  0  0  0  0  0
    5.6447    0.8910    0.0000 C   0  0  0  0  0  0  0  0  0  0  0  0
    5.0018    1.6475    0.0000 C   0  0  0  0  0  0  0  0  0  0  0  0
    7.3237    1.5183    0.0000 C   0  0  0  0  0  0  0  0  0  0  0  0
    4.4691    2.2439    0.0000 C   0  0  0  0  0  0  0  0  0  0  0  0
    7.6716    0.5094    0.0000 C   0  0  0  0  0  0  0  0  0  0  0  0
    7.4986   -0.5437    0.0000 C   0  0  0  0  0  0  0  0  0  0  0  0
    6.8462   -1.3882    0.0000 C   0  0  0  0  0  0  0  0  0  0  0  0
    7.9997    2.2590    0.0000 C   0  0  0  0  0  0  0  0  0  0  0  0
    5.8709   -1.8215    0.0000 C   0  0  1  0  0  0  0  0  0  0  0  0
    3.6030    2.7439    0.0000 C   0  0  0  0  0  0  0  0  0  0  0  0
    3.6030    0.7439    0.0000 C   0  0  0  0  0  0  0  0  0  0  0  0
    8.9819    2.0560    0.0000 C   0  0  0  0  0  0  0  0  0  0  0  0
    2.7370    2.2439    0.0000 C   0  0  0  0  0  0  0  0  0  0  0  0
    3.3938   -0.2279    0.0000 C   0  0  0  0  0  0  0  0  0  0  0  0
    6.0408   -2.8070    0.0000 C   0  0  0  0  0  0  0  0  0  0  0  0
    9.3088    1.1079    0.0000 C   0  0  0  0  0  0  0  0  0  0  0  0
    3.9094   -1.1623    0.0000 C   0  0  0  0  0  0  0  0  0  0  0  0
    2.4051   -0.3310    0.0000 C   0  0  0  0  0  0  0  0  0  0  0  0
    6.9432    2.9883    0.0000 H   0  0  0  0  0  0  0  0  0  0  0  0
    6.7281    0.6490    0.0000 H   0  0  0  0  0  0  0  0  0  0  0  0
    7.1843    1.3380    0.0000 H   0  0  0  0  0  0  0  0  0  0  0  0
    5.1304    0.5448    0.0000 H   0  0  0  0  0  0  0  0  0  0  0  0
    5.9313    0.3412    0.0000 H   0  0  0  0  0  0  0  0  0  0  0  0
    4.5054    2.0190    0.0000 H   0  0  0  0  0  0  0  0  0  0  0  0
    4.5772    1.1957    0.0000 H   0  0  0  0  0  0  0  0  0  0  0  0
    7.8250   -1.0708    0.0000 H   0  0  0  0  0  0  0  0  0  0  0  0
    6.9300   -0.2964    0.0000 H   0  0  0  0  0  0  0  0  0  0  0  0
    6.8830   -2.0071    0.0000 H   0  0  0  0  0  0  0  0  0  0  0  0
    6.4633   -0.9005    0.0000 H   0  0  0  0  0  0  0  0  0  0  0  0
    7.8085    2.8488    0.0000 H   0  0  0  0  0  0  0  0  0  0  0  0
    5.4536   -2.2800    0.0000 H   0  0  0  0  0  0  0  0  0  0  0  0
    3.6030    3.3639    0.0000 H   0  0  0  0  0  0  0  0  0  0  0  0
    4.6094   -2.3274    0.0000 H   0  0  0  0  0  0  0  0  0  0  0  0
    2.2001    2.5539    0.0000 H   0  0  0  0  0  0  0  0  0  0  0  0
    5.4298   -2.9123    0.0000 H   0  0  0  0  0  0  0  0  0  0  0  0
    6.1461   -3.4180    0.0000 H   0  0  0  0  0  0  0  0  0  0  0  0
    6.6518   -2.7017    0.0000 H   0  0  0  0  0  0  0  0  0  0  0  0
    9.9182    0.9936    0.0000 H   0  0  0  0  0  0  0  0  0  0  0  0
    2.0951   -0.8679    0.0000 H   0  0  0  0  0  0  0  0  0  0  0  0
  1 22  1  0  0  0  0
  2 27  2  0  0  0  0
  3  9  1  0  0  0  0
  3 12  1  0  0  0  0
  3 14  1  0  0  0  0
  4 14  2  0  0  0  0
  4 21  1  0  0  0  0
  5 15  1  0  0  0  0
  5 26  2  0  0  0  0
  6 19  1  0  0  0  0
  6 27  1  0  0  0  0
  6 43  1  0  0  0  0
  7  8  1  0  0  0  0
  7 21  1  0  0  0  0
  7 23  1  0  0  0  0
  8 28  2  0  0  0  0
  9 10  1  0  0  0  0
  9 13  1  0  0  0  0
  9 29  1  6  0  0  0
 10 11  1  0  0  0  0
 10 30  1  0  0  0  0
 10 31  1  0  0  0  0
 11 12  1  0  0  0  0
 11 32  1  0  0  0  0
 11 33  1  0  0  0  0
 12 34  1  0  0  0  0
 12 35  1  0  0  0  0
 13 15  2  0  0  0  0
 13 18  1  0  0  0  0
 14 20  1  0  0  0  0
 15 16  1  0  0  0  0
 16 17  1  0  0  0  0
 16 36  1  0  0  0  0
 16 37  1  0  0  0  0
 17 19  1  0  0  0  0
 17 38  1  0  0  0  0
 17 39  1  0  0  0  0
 18 22  2  0  0  0  0
 18 40  1  0  0  0  0
 19 25  1  1  0  0  0
 19 41  1  0  0  0  0
 20 23  2  0  0  0  0
 20 42  1  0  0  0  0
 21 24  2  0  0  0  0
 22 26  1  0  0  0  0
 23 44  1  0  0  0  0
 24 27  1  0  0  0  0
 24 28  1  0  0  0  0
 25 45  1  0  0  0  0
 25 46  1  0  0  0  0
 25 47  1  0  0  0  0
 26 48  1  0  0  0  0
 28 49  1  0  0  0  0
M  END
> <PUBCHEM_COMPOUND_CID>
129103609

> <PUBCHEM_COMPOUND_CANONICALIZED>
1

> <PUBCHEM_CACTVS_COMPLEXITY>
593

> <PUBCHEM_CACTVS_HBOND_ACCEPTOR>
6

> <PUBCHEM_CACTVS_HBOND_DONOR>
1

> <PUBCHEM_CACTVS_ROTATABLE_BOND>
0

> <PUBCHEM_CACTVS_SUBSKEYS>
AAADceB7oQAAAAAAAAAAAAAAAAAAAWLAAAAsWAAAAAAAAFgB+AAAHwAYAAAADCjBnww/sJ/IEACqAzd3dACShCs1gqAd2KE4ZNiIKOrA2dGEpIhongLIyOcQgMAOAAAAAAAAAAAAAAAAAAAAAAAAAAAAAA==

> <PUBCHEM_IUPAC_OPENEYE_NAME>
(6R,15R)-9-fluoro-15-methyl-2,11,16,20,21,24-hexazapentacyclo[16.5.2.02,6.07,12.021,25]pentacosa-1(24),7(12),8,10,18(25),19,22-heptaen-17-one

> <PUBCHEM_IUPAC_CAS_NAME>
(6R,15R)-9-fluoro-15-methyl-2,11,16,20,21,24-hexazapentacyclo[16.5.2.02,6.07,12.021,25]pentacosa-1(24),7(12),8,10,18(25),19,22-heptaen-17-one

> <PUBCHEM_IUPAC_NAME_MARKUP>
(6<I>R</I>,15<I>R</I>)-9-fluoro-15-methyl-2,11,16,20,21,24-hexazapentacyclo[16.5.2.0<SUP>2,6</SUP>.0<SUP>7,12</SUP>.0<SUP>21,25</SUP>]pentacosa-1(24),7(12),8,10,18(25),19,22-heptaen-17-one

> <PUBCHEM_IUPAC_NAME>
(6R,15R)-9-fluoro-15-methyl-2,11,16,20,21,24-hexazapentacyclo[16.5.2.02,6.07,12.021,25]pentacosa-1(24),7(12),8,10,18(25),19,22-heptaen-17-one

> <PUBCHEM_IUPAC_SYSTEMATIC_NAME>
(6R,15R)-9-fluoranyl-15-methyl-2,11,16,20,21,24-hexazapentacyclo[16.5.2.02,6.07,12.021,25]pentacosa-1(24),7(12),8,10,18(25),19,22-heptaen-17-one

> <PUBCHEM_IUPAC_TRADITIONAL_NAME>
(6R,15R)-9-fluoro-15-methyl-2,11,16,20,21,24-hexazapentacyclo[16.5.2.02,6.07,12.021,25]pentacosa-1(24),7(12),8,10,18(25),19,22-heptaen-17-one

> <PUBCHEM_IUPAC_INCHI>
InChI=1S/C20H21FN6O/c1-12-4-5-16-14(9-13(21)10-22-16)17-3-2-7-26(17)18-6-8-27-19(25-18)15(11-23-27)20(28)24-12/h6,8-12,17H,2-5,7H2,1H3,(H,24,28)/t12-,17-/m1/s1

> <PUBCHEM_IUPAC_INCHIKEY>
OEBIHOVSAMBXIB-SJKOYZFVSA-N

> <PUBCHEM_XLOGP3_AA>
2

> <PUBCHEM_EXACT_MASS>
380.17608748

> <PUBCHEM_MOLECULAR_FORMULA>
C20H21FN6O

> <PUBCHEM_MOLECULAR_WEIGHT>
380.4

> <PUBCHEM_OPENEYE_CAN_SMILES>
CC1CCC2=C(C=C(C=N2)F)C3CCCN3C4=NC5=C(C=NN5C=C4)C(=O)N1

> <PUBCHEM_OPENEYE_ISO_SMILES>
C[C@@H]1CCC2=C(C=C(C=N2)F)[C@H]3CCCN3C4=NC5=C(C=NN5C=C4)C(=O)N1

> <PUBCHEM_CACTVS_TPSA>
75.4

> <PUBCHEM_MONOISOTOPIC_WEIGHT>
380.17608748

> <PUBCHEM_TOTAL_CHARGE>
0

> <PUBCHEM_HEAVY_ATOM_COUNT>
28

> <PUBCHEM_ATOM_DEF_STEREO_COUNT>
2

> <PUBCHEM_ATOM_UDEF_STEREO_COUNT>
0

> <PUBCHEM_BOND_DEF_STEREO_COUNT>
0

> <PUBCHEM_BOND_UDEF_STEREO_COUNT>
0

> <PUBCHEM_ISOTOPIC_ATOM_COUNT>
0

> <PUBCHEM_COMPONENT_COUNT>
1

> <PUBCHEM_CACTVS_TAUTO_COUNT>
-1

> <PUBCHEM_COORDINATE_TYPE>
1
5
255

> <PUBCHEM_BONDANNOTATIONS>
13  15  8
13  18  8
14  20  8
18  22  8
19  25  5
20  23  8
21  24  8
22  26  8
24  28  8
4  14  8
4  21  8
5  15  8
5  26  8
7  21  8
7  23  8
7  8  8
8  28  8
9  29  6

$$$$
138734912
  -OEChem-11282412102D

 56 58  0     1  0  0  0  0  0999 V2000
    5.8146    5.1934    0.0000 O   0  0  0  0  0  0  0  0  0  0  0  0
    3.1249   -0.8927    0.0000 O   0  0  0  0  0  0  0  0  0  0  0  0
    3.3608   -5.1934    0.0000 O   0  0  0  0  0  0  0  0  0  0  0  0
    6.8249   -5.1934    0.0000 O   0  0  0  0  0  0  0  0  0  0  0  0
    6.6807    3.6934    0.0000 N   0  0  0  0  0  0  0  0  0  0  0  0
    5.5929    1.3455    0.0000 N   0  0  0  0  0  0  0  0  0  0  0  0
    5.9019    0.3944    0.0000 N   0  0  0  0  0  0  0  0  0  0  0  0
    4.0051    2.1545    0.0000 N   0  0  0  0  0  0  0  0  0  0  0  0
    2.5896    0.7545    0.0000 N   0  0  0  0  0  0  0  0  0  0  0  0
    6.1807    2.1545    0.0000 C   0  0  1  0  0  0  0  0  0  0  0  0
    7.1807    2.1545    0.0000 C   0  0  0  0  0  0  0  0  0  0  0  0
    5.8716    3.1056    0.0000 C   0  0  0  0  0  0  0  0  0  0  0  0
    7.4897    3.1056    0.0000 C   0  0  0  0  0  0  0  0  0  0  0  0
    4.5929    1.3455    0.0000 C   0  0  0  0  0  0  0  0  0  0  0  0
    6.6807    4.6934    0.0000 C   0  0  0  0  0  0  0  0  0  0  0  0
    4.2839    0.3944    0.0000 C   0  0  0  0  0  0  0  0  0  0  0  0
    5.0929   -0.1934    0.0000 C   0  0  0  0  0  0  0  0  0  0  0  0
    7.5467    5.1934    0.0000 C   0  0  0  0  0  0  0  0  0  0  0  0
    3.3328    0.0854    0.0000 C   0  0  0  0  0  0  0  0  0  0  0  0
    4.4118    3.0680    0.0000 C   0  0  0  0  0  0  0  0  0  0  0  0
    5.0929   -1.1934    0.0000 C   0  0  0  0  0  0  0  0  0  0  0  0
    7.5467    6.1934    0.0000 C   0  0  0  0  0  0  0  0  0  0  0  0
    5.0929   -2.1934    0.0000 C   0  0  0  0  0  0  0  0  0  0  0  0
    5.0929   -3.1934    0.0000 C   0  0  0  0  0  0  0  0  0  0  0  0
    5.9589   -3.6934    0.0000 C   0  0  0  0  0  0  0  0  0  0  0  0
    4.2268   -3.6934    0.0000 C   0  0  0  0  0  0  0  0  0  0  0  0
    4.2268   -4.6934    0.0000 C   0  0  0  0  0  0  0  0  0  0  0  0
    5.9589   -4.6934    0.0000 C   0  0  0  0  0  0  0  0  0  0  0  0
    5.0929   -5.1934    0.0000 C   0  0  0  0  0  0  0  0  0  0  0  0
    3.3608   -6.1934    0.0000 C   0  0  0  0  0  0  0  0  0  0  0  0
    7.6910   -4.6934    0.0000 C   0  0  0  0  0  0  0  0  0  0  0  0
    6.4621    1.6021    0.0000 H   0  0  0  0  0  0  0  0  0  0  0  0
    7.1158    1.5379    0.0000 H   0  0  0  0  0  0  0  0  0  0  0  0
    7.7871    2.0256    0.0000 H   0  0  0  0  0  0  0  0  0  0  0  0
    5.5616    3.6425    0.0000 H   0  0  0  0  0  0  0  0  0  0  0  0
    5.3052    2.8534    0.0000 H   0  0  0  0  0  0  0  0  0  0  0  0
    8.0561    2.8534    0.0000 H   0  0  0  0  0  0  0  0  0  0  0  0
    7.7997    3.6425    0.0000 H   0  0  0  0  0  0  0  0  0  0  0  0
    3.3885    2.0897    0.0000 H   0  0  0  0  0  0  0  0  0  0  0  0
    8.0836    4.8834    0.0000 H   0  0  0  0  0  0  0  0  0  0  0  0
    4.9782    2.8159    0.0000 H   0  0  0  0  0  0  0  0  0  0  0  0
    4.6640    3.6344    0.0000 H   0  0  0  0  0  0  0  0  0  0  0  0
    3.8454    3.3202    0.0000 H   0  0  0  0  0  0  0  0  0  0  0  0
    8.0836    6.5034    0.0000 H   0  0  0  0  0  0  0  0  0  0  0  0
    7.0098    6.5034    0.0000 H   0  0  0  0  0  0  0  0  0  0  0  0
    2.0000    0.5630    0.0000 H   0  0  0  0  0  0  0  0  0  0  0  0
    2.7186    1.3610    0.0000 H   0  0  0  0  0  0  0  0  0  0  0  0
    6.4958   -3.3834    0.0000 H   0  0  0  0  0  0  0  0  0  0  0  0
    3.6899   -3.3834    0.0000 H   0  0  0  0  0  0  0  0  0  0  0  0
    5.0929   -5.8134    0.0000 H   0  0  0  0  0  0  0  0  0  0  0  0
    2.7408   -6.1934    0.0000 H   0  0  0  0  0  0  0  0  0  0  0  0
    3.3608   -6.8134    0.0000 H   0  0  0  0  0  0  0  0  0  0  0  0
    3.9808   -6.1934    0.0000 H   0  0  0  0  0  0  0  0  0  0  0  0
    8.0010   -5.2303    0.0000 H   0  0  0  0  0  0  0  0  0  0  0  0
    8.2279   -4.3834    0.0000 H   0  0  0  0  0  0  0  0  0  0  0  0
    7.3810   -4.1564    0.0000 H   0  0  0  0  0  0  0  0  0  0  0  0
  1 15  2  0  0  0  0
  2 19  2  0  0  0  0
  3 27  1  0  0  0  0
  3 30  1  0  0  0  0
  4 28  1  0  0  0  0
  4 31  1  0  0  0  0
  5 12  1  0  0  0  0
  5 13  1  0  0  0  0
  5 15  1  0  0  0  0
  6  7  1  0  0  0  0
 10  6  1  6  0  0  0
  6 14  1  0  0  0  0
  7 17  2  0  0  0  0
  8 14  1  0  0  0  0
  8 20  1  0  0  0  0
  8 39  1  0  0  0  0
  9 19  1  0  0  0  0
  9 46  1  0  0  0  0
  9 47  1  0  0  0  0
 10 11  1  0  0  0  0
 10 12  1  0  0  0  0
 10 32  1  0  0  0  0
 11 13  1  0  0  0  0
 11 33  1  0  0  0  0
 11 34  1  0  0  0  0
 12 35  1  0  0  0  0
 12 36  1  0  0  0  0
 13 37  1  0  0  0  0
 13 38  1  0  0  0  0
 14 16  2  0  0  0  0
 15 18  1  0  0  0  0
 16 17  1  0  0  0  0
 16 19  1  0  0  0  0
 17 21  1  0  0  0  0
 18 22  2  0  0  0  0
 18 40  1  0  0  0  0
 20 41  1  0  0  0  0
 20 42  1  0  0  0  0
 20 43  1  0  0  0  0
 21 23  3  0  0  0  0
 22 44  1  0  0  0  0
 22 45  1  0  0  0  0
 23 24  1  0  0  0  0
 24 25  2  0  0  0  0
 24 26  1  0  0  0  0
 25 28  1  0  0  0  0
 25 48  1  0  0  0  0
 26 27  2  0  0  0  0
 26 49  1  0  0  0  0
 27 29  1  0  0  0  0
 28 29  2  0  0  0  0
 29 50  1  0  0  0  0
 30 51  1  0  0  0  0
 30 52  1  0  0  0  0
 30 53  1  0  0  0  0
 31 54  1  0  0  0  0
 31 55  1  0  0  0  0
 31 56  1  0  0  0  0
M  END
> <PUBCHEM_COMPOUND_CID>
138734912

> <PUBCHEM_COMPOUND_CANONICALIZED>
1

> <PUBCHEM_CACTVS_COMPLEXITY>
735

> <PUBCHEM_CACTVS_HBOND_ACCEPTOR>
6

> <PUBCHEM_CACTVS_HBOND_DONOR>
2

> <PUBCHEM_CACTVS_ROTATABLE_BOND>
8

> <PUBCHEM_CACTVS_SUBSKEYS>
AAADceB7uAAAAAAAAAAAAAAAAAAAAWLAAAAwAAAAAAAAAAABwAAAHgAYAAAADCzBngYztpPIBADqEydydAiSDAMloAAd2KEuTNiMZzrE8dqUtah9zhfI6ceA4BwOAAABCAAAAAAAAAIQAAAAAAAAAAAAAA==

> <PUBCHEM_IUPAC_OPENEYE_NAME>
3-[2-(3,5-dimethoxyphenyl)ethynyl]-5-(methylamino)-1-[(3S)-1-prop-2-enoylpyrrolidin-3-yl]pyrazole-4-carboxamide

> <PUBCHEM_IUPAC_CAS_NAME>
3-[2-(3,5-dimethoxyphenyl)ethynyl]-5-(methylamino)-1-[(3S)-1-(1-oxoprop-2-enyl)-3-pyrrolidinyl]-4-pyrazolecarboxamide

> <PUBCHEM_IUPAC_NAME_MARKUP>
3-[2-(3,5-dimethoxyphenyl)ethynyl]-5-(methylamino)-1-[(3<I>S</I>)-1-prop-2-enoylpyrrolidin-3-yl]pyrazole-4-carboxamide

> <PUBCHEM_IUPAC_NAME>
3-[2-(3,5-dimethoxyphenyl)ethynyl]-5-(methylamino)-1-[(3S)-1-prop-2-enoylpyrrolidin-3-yl]pyrazole-4-carboxamide

> <PUBCHEM_IUPAC_SYSTEMATIC_NAME>
3-[2-(3,5-dimethoxyphenyl)ethynyl]-5-(methylamino)-1-[(3S)-1-prop-2-enoylpyrrolidin-3-yl]pyrazole-4-carboxamide

> <PUBCHEM_IUPAC_TRADITIONAL_NAME>
1-[(3S)-1-acryloylpyrrolidin-3-yl]-3-[2-(3,5-dimethoxyphenyl)ethynyl]-5-(methylamino)pyrazole-4-carboxamide

> <PUBCHEM_IUPAC_INCHI>
InChI=1S/C22H25N5O4/c1-5-19(28)26-9-8-15(13-26)27-22(24-2)20(21(23)29)18(25-27)7-6-14-10-16(30-3)12-17(11-14)31-4/h5,10-12,15,24H,1,8-9,13H2,2-4H3,(H2,23,29)/t15-/m0/s1

> <PUBCHEM_IUPAC_INCHIKEY>
QFUIJOBJAQBGDH-HNNXBMFYSA-N

> <PUBCHEM_XLOGP3_AA>
2.2

> <PUBCHEM_EXACT_MASS>
423.19065430

> <PUBCHEM_MOLECULAR_FORMULA>
C22H25N5O4

> <PUBCHEM_MOLECULAR_WEIGHT>
423.5

> <PUBCHEM_OPENEYE_CAN_SMILES>
CNC1=C(C(=NN1C2CCN(C2)C(=O)C=C)C#CC3=CC(=CC(=C3)OC)OC)C(=O)N

> <PUBCHEM_OPENEYE_ISO_SMILES>
CNC1=C(C(=NN1[C@H]2CCN(C2)C(=O)C=C)C#CC3=CC(=CC(=C3)OC)OC)C(=O)N

> <PUBCHEM_CACTVS_TPSA>
112

> <PUBCHEM_MONOISOTOPIC_WEIGHT>
423.19065430

> <PUBCHEM_TOTAL_CHARGE>
0

> <PUBCHEM_HEAVY_ATOM_COUNT>
31

> <PUBCHEM_ATOM_DEF_STEREO_COUNT>
1

> <PUBCHEM_ATOM_UDEF_STEREO_COUNT>
0

> <PUBCHEM_BOND_DEF_STEREO_COUNT>
0

> <PUBCHEM_BOND_UDEF_STEREO_COUNT>
0

> <PUBCHEM_ISOTOPIC_ATOM_COUNT>
0

> <PUBCHEM_COMPONENT_COUNT>
1

> <PUBCHEM_CACTVS_TAUTO_COUNT>
-1

> <PUBCHEM_COORDINATE_TYPE>
1
5
255

> <PUBCHEM_BONDANNOTATIONS>
14  16  8
16  17  8
24  25  8
24  26  8
25  28  8
26  27  8
27  29  8
28  29  8
10  6  6
6  14  8
6  7  8
7  17  8

$$$$
44181686
  -OEChem-11282412102D

 56 60  0     1  0  0  0  0  0999 V2000
    3.0490    2.3130    0.0000 F   0  0  0  0  0  0  0  0  0  0  0  0
    8.8690   -0.0643    0.0000 O   0  0  0  0  0  0  0  0  0  0  0  0
   12.3992    0.9116    0.0000 O   0  0  0  0  0  0  0  0  0  0  0  0
   14.9992    1.4016    0.0000 O   0  0  0  0  0  0  0  0  0  0  0  0
    8.0030    1.4357    0.0000 N   0  0  0  0  0  0  0  0  0  0  0  0
    5.3632    1.0306    0.0000 N   0  0  0  0  0  0  0  0  0  0  0  0
    6.1679    2.4245    0.0000 N   0  0  0  0  0  0  0  0  0  0  0  0
    5.1961    2.6337    0.0000 N   0  0  0  0  0  0  0  0  0  0  0  0
   10.6290    2.9704    0.0000 N   0  0  0  0  0  0  0  0  0  0  0  0
    2.8100   -2.3840    0.0000 N   0  0  0  0  0  0  0  0  0  0  0  0
    3.7606   -2.6947    0.0000 N   0  0  0  0  0  0  0  0  0  0  0  0
    7.1370    0.9357    0.0000 C   0  0  1  0  0  0  0  0  0  0  0  0
    6.2710    1.4357    0.0000 C   0  0  0  0  0  0  0  0  0  0  0  0
    7.1370   -0.0643    0.0000 C   0  0  0  0  0  0  0  0  0  0  0  0
    4.6953    1.7749    0.0000 C   0  0  0  0  0  0  0  0  0  0  0  0
    8.8690    0.9357    0.0000 C   0  0  0  0  0  0  0  0  0  0  0  0
    5.0525    0.0801    0.0000 C   0  0  0  0  0  0  0  0  0  0  0  0
    8.0030    2.4357    0.0000 C   0  0  0  0  0  0  0  0  0  0  0  0
    9.7351    1.4357    0.0000 C   0  0  0  0  0  0  0  0  0  0  0  0
    4.0740   -0.1261    0.0000 C   0  0  0  0  0  0  0  0  0  0  0  0
    9.7351    2.4357    0.0000 C   0  0  0  0  0  0  0  0  0  0  0  0
    8.8690    2.9357    0.0000 C   0  0  0  0  0  0  0  0  0  0  0  0
    3.7168    1.5687    0.0000 C   0  0  0  0  0  0  0  0  0  0  0  0
    3.4062    0.6182    0.0000 C   0  0  0  0  0  0  0  0  0  0  0  0
    3.7634   -1.0766    0.0000 C   0  0  0  0  0  0  0  0  0  0  0  0
   10.6290    0.9011    0.0000 C   0  0  0  0  0  0  0  0  0  0  0  0
   11.5351    1.4149    0.0000 C   0  0  0  0  0  0  0  0  0  0  0  0
    2.8118   -1.3840    0.0000 C   0  0  0  0  0  0  0  0  0  0  0  0
    4.3497   -1.8867    0.0000 C   0  0  0  0  0  0  0  0  0  0  0  0
   11.5351    2.4566    0.0000 C   0  0  0  0  0  0  0  0  0  0  0  0
   13.2671    1.4082    0.0000 C   0  0  0  0  0  0  0  0  0  0  0  0
    2.0000   -2.9704    0.0000 C   0  0  0  0  0  0  0  0  0  0  0  0
   14.1312    0.9049    0.0000 C   0  0  0  0  0  0  0  0  0  0  0  0
   15.8632    0.8982    0.0000 C   0  0  0  0  0  0  0  0  0  0  0  0
    7.6739    0.6257    0.0000 H   0  0  0  0  0  0  0  0  0  0  0  0
    6.5170   -0.0643    0.0000 H   0  0  0  0  0  0  0  0  0  0  0  0
    7.1370   -0.6843    0.0000 H   0  0  0  0  0  0  0  0  0  0  0  0
    7.7570   -0.0643    0.0000 H   0  0  0  0  0  0  0  0  0  0  0  0
    5.4666   -0.3814    0.0000 H   0  0  0  0  0  0  0  0  0  0  0  0
    7.4661    2.7457    0.0000 H   0  0  0  0  0  0  0  0  0  0  0  0
    8.8690    3.5557    0.0000 H   0  0  0  0  0  0  0  0  0  0  0  0
    2.7995    0.4903    0.0000 H   0  0  0  0  0  0  0  0  0  0  0  0
   10.6218    0.2811    0.0000 H   0  0  0  0  0  0  0  0  0  0  0  0
    2.3108   -1.0187    0.0000 H   0  0  0  0  0  0  0  0  0  0  0  0
    4.9697   -1.8878    0.0000 H   0  0  0  0  0  0  0  0  0  0  0  0
   12.0708    2.7686    0.0000 H   0  0  0  0  0  0  0  0  0  0  0  0
   13.6675    1.8816    0.0000 H   0  0  0  0  0  0  0  0  0  0  0  0
   12.8704    1.8847    0.0000 H   0  0  0  0  0  0  0  0  0  0  0  0
    1.6364   -2.4682    0.0000 H   0  0  0  0  0  0  0  0  0  0  0  0
    1.4978   -3.3340    0.0000 H   0  0  0  0  0  0  0  0  0  0  0  0
    2.3636   -3.4726    0.0000 H   0  0  0  0  0  0  0  0  0  0  0  0
   13.7309    0.4315    0.0000 H   0  0  0  0  0  0  0  0  0  0  0  0
   14.5279    0.4284    0.0000 H   0  0  0  0  0  0  0  0  0  0  0  0
   15.5512    0.3625    0.0000 H   0  0  0  0  0  0  0  0  0  0  0  0
   16.3990    0.5862    0.0000 H   0  0  0  0  0  0  0  0  0  0  0  0
   16.1753    1.4340    0.0000 H   0  0  0  0  0  0  0  0  0  0  0  0
  1 23  1  0  0  0  0
  2 16  2  0  0  0  0
  3 27  1  0  0  0  0
  3 31  1  0  0  0  0
  4 33  1  0  0  0  0
  4 34  1  0  0  0  0
  5 12  1  0  0  0  0
  5 16  1  0  0  0  0
  5 18  1  0  0  0  0
  6 13  1  0  0  0  0
  6 15  1  0  0  0  0
  6 17  1  0  0  0  0
  7  8  1  0  0  0  0
  7 13  2  0  0  0  0
  8 15  2  0  0  0  0
  9 21  1  0  0  0  0
  9 30  2  0  0  0  0
 10 11  1  0  0  0  0
 10 28  1  0  0  0  0
 10 32  1  0  0  0  0
 11 29  2  0  0  0  0
 12 13  1  0  0  0  0
 12 14  1  6  0  0  0
 12 35  1  0  0  0  0
 14 36  1  0  0  0  0
 14 37  1  0  0  0  0
 14 38  1  0  0  0  0
 15 23  1  0  0  0  0
 16 19  1  0  0  0  0
 17 20  2  0  0  0  0
 17 39  1  0  0  0  0
 18 22  2  0  0  0  0
 18 40  1  0  0  0  0
 19 21  2  0  0  0  0
 19 26  1  0  0  0  0
 20 24  1  0  0  0  0
 20 25  1  0  0  0  0
 21 22  1  0  0  0  0
 22 41  1  0  0  0  0
 23 24  2  0  0  0  0
 24 42  1  0  0  0  0
 25 28  2  0  0  0  0
 25 29  1  0  0  0  0
 26 27  2  0  0  0  0
 26 43  1  0  0  0  0
 27 30  1  0  0  0  0
 28 44  1  0  0  0  0
 29 45  1  0  0  0  0
 30 46  1  0  0  0  0
 31 33  1  0  0  0  0
 31 47  1  0  0  0  0
 31 48  1  0  0  0  0
 32 49  1  0  0  0  0
 32 50  1  0  0  0  0
 32 51  1  0  0  0  0
 33 52  1  0  0  0  0
 33 53  1  0  0  0  0
 34 54  1  0  0  0  0
 34 55  1  0  0  0  0
 34 56  1  0  0  0  0
M  END
> <PUBCHEM_COMPOUND_CID>
44181686

> <PUBCHEM_COMPOUND_CANONICALIZED>
1

> <PUBCHEM_CACTVS_COMPLEXITY>
760

> <PUBCHEM_CACTVS_HBOND_ACCEPTOR>
8

> <PUBCHEM_CACTVS_HBOND_DONOR>
0

> <PUBCHEM_CACTVS_ROTATABLE_BOND>
7

> <PUBCHEM_CACTVS_SUBSKEYS>
AAADceB7sQAAAAAAAAAAAAAAAAAAAWLAAAAsWIAAAAAAAFiB/gAAHwAIAAAADCzhnw4/tp8MHACqAzd3dASSjCs14qAd2CE/TNiPbvrE/duXvajkzhPa6ee6AQAOgAAAAAAAAAAAAAAAAAAAAAAAAAAAAA==

> <PUBCHEM_IUPAC_OPENEYE_NAME>
6-[(1R)-1-[8-fluoro-6-(1-methylpyrazol-4-yl)-[1,2,4]triazolo[4,3-a]pyridin-3-yl]ethyl]-3-(2-methoxyethoxy)-1,6-naphthyridin-5-one

> <PUBCHEM_IUPAC_CAS_NAME>
6-[(1R)-1-[8-fluoro-6-(1-methyl-4-pyrazolyl)-[1,2,4]triazolo[4,3-a]pyridin-3-yl]ethyl]-3-(2-methoxyethoxy)-1,6-naphthyridin-5-one

> <PUBCHEM_IUPAC_NAME_MARKUP>
6-[(1<I>R</I>)-1-[8-fluoro-6-(1-methylpyrazol-4-yl)-[1,2,4]triazolo[4,3-a]pyridin-3-yl]ethyl]-3-(2-methoxyethoxy)-1,6-naphthyridin-5-one

> <PUBCHEM_IUPAC_NAME>
6-[(1R)-1-[8-fluoro-6-(1-methylpyrazol-4-yl)-[1,2,4]triazolo[4,3-a]pyridin-3-yl]ethyl]-3-(2-methoxyethoxy)-1,6-naphthyridin-5-one

> <PUBCHEM_IUPAC_SYSTEMATIC_NAME>
6-[(1R)-1-[8-fluoranyl-6-(1-methylpyrazol-4-yl)-[1,2,4]triazolo[4,3-a]pyridin-3-yl]ethyl]-3-(2-methoxyethoxy)-1,6-naphthyridin-5-one

> <PUBCHEM_IUPAC_TRADITIONAL_NAME>
6-[(1R)-1-[8-fluoro-6-(1-methylpyrazol-4-yl)-[1,2,4]triazolo[4,3-a]pyridin-3-yl]ethyl]-3-(2-methoxyethoxy)-1,6-naphthyridin-5-one

> <PUBCHEM_IUPAC_INCHI>
InChI=1S/C23H22FN7O3/c1-14(30-5-4-20-18(23(30)32)9-17(11-25-20)34-7-6-33-3)21-27-28-22-19(24)8-15(13-31(21)22)16-10-26-29(2)12-16/h4-5,8-14H,6-7H2,1-3H3/t14-/m1/s1

> <PUBCHEM_IUPAC_INCHIKEY>
DWHXUGDWKAIASB-CQSZACIVSA-N

> <PUBCHEM_XLOGP3_AA>
1.5

> <PUBCHEM_EXACT_MASS>
463.17681575

> <PUBCHEM_MOLECULAR_FORMULA>
C23H22FN7O3

> <PUBCHEM_MOLECULAR_WEIGHT>
463.5

> <PUBCHEM_OPENEYE_CAN_SMILES>
CC(C1=NN=C2N1C=C(C=C2F)C3=CN(N=C3)C)N4C=CC5=C(C4=O)C=C(C=N5)OCCOC

> <PUBCHEM_OPENEYE_ISO_SMILES>
C[C@H](C1=NN=C2N1C=C(C=C2F)C3=CN(N=C3)C)N4C=CC5=C(C4=O)C=C(C=N5)OCCOC

> <PUBCHEM_CACTVS_TPSA>
99.7

> <PUBCHEM_MONOISOTOPIC_WEIGHT>
463.17681575

> <PUBCHEM_TOTAL_CHARGE>
0

> <PUBCHEM_HEAVY_ATOM_COUNT>
34

> <PUBCHEM_ATOM_DEF_STEREO_COUNT>
1

> <PUBCHEM_ATOM_UDEF_STEREO_COUNT>
0

> <PUBCHEM_BOND_DEF_STEREO_COUNT>
0

> <PUBCHEM_BOND_UDEF_STEREO_COUNT>
0

> <PUBCHEM_ISOTOPIC_ATOM_COUNT>
0

> <PUBCHEM_COMPONENT_COUNT>
1

> <PUBCHEM_CACTVS_TAUTO_COUNT>
1

> <PUBCHEM_COORDINATE_TYPE>
1
5
255

> <PUBCHEM_BONDANNOTATIONS>
10  11  8
10  28  8
11  29  8
12  14  6
15  23  8
16  19  8
17  20  8
18  22  8
19  21  8
19  26  8
20  24  8
21  22  8
23  24  8
25  28  8
25  29  8
26  27  8
27  30  8
5  16  8
5  18  8
6  13  8
6  15  8
6  17  8
7  13  8
7  8  8
8  15  8
9  21  8
9  30  8

$$$$
57990869
  -OEChem-11282412102D

 61 65  0     1  0  0  0  0  0999 V2000
    2.8660    7.5194    0.0000 O   0  0  0  0  0  0  0  0  0  0  0  0
    6.3301   -4.4806    0.0000 O   0  0  0  0  0  0  0  0  0  0  0  0
    6.2731   -6.5684    0.0000 N   0  0  0  0  0  0  0  0  0  0  0  0
    2.8660    5.5194    0.0000 N   0  0  0  0  0  0  0  0  0  0  0  0
    4.5981   -4.4806    0.0000 N   0  0  0  0  0  0  0  0  0  0  0  0
    2.8660    1.5194    0.0000 N   0  0  0  0  0  0  0  0  0  0  0  0
    3.7320    0.0194    0.0000 N   0  0  0  0  0  0  0  0  0  0  0  0
    4.5981    1.5194    0.0000 N   0  0  0  0  0  0  0  0  0  0  0  0
    5.4641   -5.9806    0.0000 C   0  0  1  0  0  0  0  0  0  0  0  0
    4.6551   -6.5684    0.0000 C   0  0  0  0  0  0  0  0  0  0  0  0
    4.9641   -7.5194    0.0000 C   0  0  0  0  0  0  0  0  0  0  0  0
    5.9641   -7.5194    0.0000 C   0  0  0  0  0  0  0  0  0  0  0  0
    5.4641   -4.9806    0.0000 C   0  0  0  0  0  0  0  0  0  0  0  0
    3.7320    6.0194    0.0000 C   0  0  0  0  0  0  0  0  0  0  0  0
    2.0000    6.0194    0.0000 C   0  0  0  0  0  0  0  0  0  0  0  0
    3.7320    7.0194    0.0000 C   0  0  0  0  0  0  0  0  0  0  0  0
    2.0000    7.0194    0.0000 C   0  0  0  0  0  0  0  0  0  0  0  0
    2.8660    4.5194    0.0000 C   0  0  0  0  0  0  0  0  0  0  0  0
    4.5981   -3.4806    0.0000 C   0  0  0  0  0  0  0  0  0  0  0  0
    3.7320    4.0194    0.0000 C   0  0  0  0  0  0  0  0  0  0  0  0
    2.0000    4.0194    0.0000 C   0  0  0  0  0  0  0  0  0  0  0  0
    5.4641   -2.9806    0.0000 C   0  0  0  0  0  0  0  0  0  0  0  0
    3.7320   -2.9806    0.0000 C   0  0  0  0  0  0  0  0  0  0  0  0
    2.8660    2.5194    0.0000 C   0  0  0  0  0  0  0  0  0  0  0  0
    3.7320    3.0194    0.0000 C   0  0  0  0  0  0  0  0  0  0  0  0
    2.0000    3.0194    0.0000 C   0  0  0  0  0  0  0  0  0  0  0  0
    4.5981   -1.4806    0.0000 C   0  0  0  0  0  0  0  0  0  0  0  0
    5.4641   -1.9806    0.0000 C   0  0  0  0  0  0  0  0  0  0  0  0
    3.7320   -1.9806    0.0000 C   0  0  0  0  0  0  0  0  0  0  0  0
    4.5981   -0.4806    0.0000 C   0  0  0  0  0  0  0  0  0  0  0  0
    3.7320    1.0194    0.0000 C   0  0  0  0  0  0  0  0  0  0  0  0
    5.4641    0.0194    0.0000 C   0  0  0  0  0  0  0  0  0  0  0  0
    5.4641    1.0194    0.0000 C   0  0  0  0  0  0  0  0  0  0  0  0
    6.0165   -5.6991    0.0000 H   0  0  0  0  0  0  0  0  0  0  0  0
    4.3451   -6.0314    0.0000 H   0  0  0  0  0  0  0  0  0  0  0  0
    4.0887   -6.8205    0.0000 H   0  0  0  0  0  0  0  0  0  0  0  0
    4.3576   -7.6483    0.0000 H   0  0  0  0  0  0  0  0  0  0  0  0
    5.0289   -8.1360    0.0000 H   0  0  0  0  0  0  0  0  0  0  0  0
    5.8993   -8.1360    0.0000 H   0  0  0  0  0  0  0  0  0  0  0  0
    6.5706   -7.6483    0.0000 H   0  0  0  0  0  0  0  0  0  0  0  0
    6.8628   -6.3768    0.0000 H   0  0  0  0  0  0  0  0  0  0  0  0
    3.9441    5.4368    0.0000 H   0  0  0  0  0  0  0  0  0  0  0  0
    4.3426    6.1271    0.0000 H   0  0  0  0  0  0  0  0  0  0  0  0
    1.3894    6.1271    0.0000 H   0  0  0  0  0  0  0  0  0  0  0  0
    1.7880    5.4368    0.0000 H   0  0  0  0  0  0  0  0  0  0  0  0
    4.0611   -4.7906    0.0000 H   0  0  0  0  0  0  0  0  0  0  0  0
    4.3426    6.9118    0.0000 H   0  0  0  0  0  0  0  0  0  0  0  0
    3.9441    7.6020    0.0000 H   0  0  0  0  0  0  0  0  0  0  0  0
    1.7880    7.6020    0.0000 H   0  0  0  0  0  0  0  0  0  0  0  0
    1.3894    6.9118    0.0000 H   0  0  0  0  0  0  0  0  0  0  0  0
    4.2690    4.3294    0.0000 H   0  0  0  0  0  0  0  0  0  0  0  0
    1.4631    4.3294    0.0000 H   0  0  0  0  0  0  0  0  0  0  0  0
    6.0010   -3.2906    0.0000 H   0  0  0  0  0  0  0  0  0  0  0  0
    3.1951   -3.2906    0.0000 H   0  0  0  0  0  0  0  0  0  0  0  0
    4.2690    2.7094    0.0000 H   0  0  0  0  0  0  0  0  0  0  0  0
    1.4631    2.7094    0.0000 H   0  0  0  0  0  0  0  0  0  0  0  0
    6.0010   -1.6706    0.0000 H   0  0  0  0  0  0  0  0  0  0  0  0
    3.1951   -1.6706    0.0000 H   0  0  0  0  0  0  0  0  0  0  0  0
    2.3291    1.2094    0.0000 H   0  0  0  0  0  0  0  0  0  0  0  0
    6.0010   -0.2906    0.0000 H   0  0  0  0  0  0  0  0  0  0  0  0
    6.0010    1.3294    0.0000 H   0  0  0  0  0  0  0  0  0  0  0  0
  1 16  1  0  0  0  0
  1 17  1  0  0  0  0
  2 13  2  0  0  0  0
  3  9  1  0  0  0  0
  3 12  1  0  0  0  0
  3 41  1  0  0  0  0
  4 14  1  0  0  0  0
  4 15  1  0  0  0  0
  4 18  1  0  0  0  0
  5 13  1  0  0  0  0
  5 19  1  0  0  0  0
  5 46  1  0  0  0  0
  6 24  1  0  0  0  0
  6 31  1  0  0  0  0
  6 59  1  0  0  0  0
  7 30  2  0  0  0  0
  7 31  1  0  0  0  0
  8 31  2  0  0  0  0
  8 33  1  0  0  0  0
  9 10  1  0  0  0  0
  9 13  1  1  0  0  0
  9 34  1  0  0  0  0
 10 11  1  0  0  0  0
 10 35  1  0  0  0  0
 10 36  1  0  0  0  0
 11 12  1  0  0  0  0
 11 37  1  0  0  0  0
 11 38  1  0  0  0  0
 12 39  1  0  0  0  0
 12 40  1  0  0  0  0
 14 16  1  0  0  0  0
 14 42  1  0  0  0  0
 14 43  1  0  0  0  0
 15 17  1  0  0  0  0
 15 44  1  0  0  0  0
 15 45  1  0  0  0  0
 16 47  1  0  0  0  0
 16 48  1  0  0  0  0
 17 49  1  0  0  0  0
 17 50  1  0  0  0  0
 18 20  2  0  0  0  0
 18 21  1  0  0  0  0
 19 22  2  0  0  0  0
 19 23  1  0  0  0  0
 20 25  1  0  0  0  0
 20 51  1  0  0  0  0
 21 26  2  0  0  0  0
 21 52  1  0  0  0  0
 22 28  1  0  0  0  0
 22 53  1  0  0  0  0
 23 29  2  0  0  0  0
 23 54  1  0  0  0  0
 24 25  2  0  0  0  0
 24 26  1  0  0  0  0
 25 55  1  0  0  0  0
 26 56  1  0  0  0  0
 27 28  2  0  0  0  0
 27 29  1  0  0  0  0
 27 30  1  0  0  0  0
 28 57  1  0  0  0  0
 29 58  1  0  0  0  0
 30 32  1  0  0  0  0
 32 33  2  0  0  0  0
 32 60  1  0  0  0  0
 33 61  1  0  0  0  0
M  END
> <PUBCHEM_COMPOUND_CID>
57990869

> <PUBCHEM_COMPOUND_CANONICALIZED>
1

> <PUBCHEM_CACTVS_COMPLEXITY>
614

> <PUBCHEM_CACTVS_HBOND_ACCEPTOR>
7

> <PUBCHEM_CACTVS_HBOND_DONOR>
3

> <PUBCHEM_CACTVS_ROTATABLE_BOND>
6

> <PUBCHEM_CACTVS_SUBSKEYS>
AAADceB7sAAAAAAAAAAAAAAAAAAAAWAAAAA8eIEAAAAAAAAB0AAAHgAQAAAADCjhngY90JfIFACoAzV3dACCgCkxAqAJ2KG4ZJiKaLLA2fGXJAholALYyCcYgYAOCACAAAAAAAAQAQAAAAAAAAAAAAAAAA==

> <PUBCHEM_IUPAC_OPENEYE_NAME>
(2S)-N-[4-[2-(4-morpholinoanilino)pyrimidin-4-yl]phenyl]pyrrolidine-2-carboxamide

> <PUBCHEM_IUPAC_CAS_NAME>
(2S)-N-[4-[2-[4-(4-morpholinyl)anilino]-4-pyrimidinyl]phenyl]-2-pyrrolidinecarboxamide

> <PUBCHEM_IUPAC_NAME_MARKUP>
(2<I>S</I>)-<I>N</I>-[4-[2-(4-morpholin-4-ylanilino)pyrimidin-4-yl]phenyl]pyrrolidine-2-carboxamide

> <PUBCHEM_IUPAC_NAME>
(2S)-N-[4-[2-(4-morpholin-4-ylanilino)pyrimidin-4-yl]phenyl]pyrrolidine-2-carboxamide

> <PUBCHEM_IUPAC_SYSTEMATIC_NAME>
(2S)-N-[4-[2-[(4-morpholin-4-ylphenyl)amino]pyrimidin-4-yl]phenyl]pyrrolidine-2-carboxamide

> <PUBCHEM_IUPAC_TRADITIONAL_NAME>
(2S)-N-[4-[2-(4-morpholinoanilino)pyrimidin-4-yl]phenyl]pyrrolidine-2-carboxamide

> <PUBCHEM_IUPAC_INCHI>
InChI=1S/C25H28N6O2/c32-24(23-2-1-12-26-23)28-19-5-3-18(4-6-19)22-11-13-27-25(30-22)29-20-7-9-21(10-8-20)31-14-16-33-17-15-31/h3-11,13,23,26H,1-2,12,14-17H2,(H,28,32)(H,27,29,30)/t23-/m0/s1

> <PUBCHEM_IUPAC_INCHIKEY>
ISOCDPQFIXDIMS-QHCPKHFHSA-N

> <PUBCHEM_XLOGP3_AA>
2.8

> <PUBCHEM_EXACT_MASS>
444.22737416

> <PUBCHEM_MOLECULAR_FORMULA>
C25H28N6O2

> <PUBCHEM_MOLECULAR_WEIGHT>
444.5

> <PUBCHEM_OPENEYE_CAN_SMILES>
C1CC(NC1)C(=O)NC2=CC=C(C=C2)C3=NC(=NC=C3)NC4=CC=C(C=C4)N5CCOCC5

> <PUBCHEM_OPENEYE_ISO_SMILES>
C1C[C@H](NC1)C(=O)NC2=CC=C(C=C2)C3=NC(=NC=C3)NC4=CC=C(C=C4)N5CCOCC5

> <PUBCHEM_CACTVS_TPSA>
91.4

> <PUBCHEM_MONOISOTOPIC_WEIGHT>
444.22737416

> <PUBCHEM_TOTAL_CHARGE>
0

> <PUBCHEM_HEAVY_ATOM_COUNT>
33

> <PUBCHEM_ATOM_DEF_STEREO_COUNT>
1

> <PUBCHEM_ATOM_UDEF_STEREO_COUNT>
0

> <PUBCHEM_BOND_DEF_STEREO_COUNT>
0

> <PUBCHEM_BOND_UDEF_STEREO_COUNT>
0

> <PUBCHEM_ISOTOPIC_ATOM_COUNT>
0

> <PUBCHEM_COMPONENT_COUNT>
1

> <PUBCHEM_CACTVS_TAUTO_COUNT>
-1

> <PUBCHEM_COORDINATE_TYPE>
1
5
255

> <PUBCHEM_BONDANNOTATIONS>
18  20  8
18  21  8
19  22  8
19  23  8
20  25  8
21  26  8
22  28  8
23  29  8
24  25  8
24  26  8
27  28  8
27  29  8
30  32  8
32  33  8
7  30  8
7  31  8
8  31  8
8  33  8
9  13  5

$$$$
118029202
  -OEChem-11282412102D

 77 80  0     0  0  0  0  0  0999 V2000
    5.4641   -2.0000    0.0000 Cl  0  0  0  0  0  0  0  0  0  0  0  0
    2.0000   -2.0000    0.0000 Cl  0  0  0  0  0  0  0  0  0  0  0  0
   11.5263   -0.5000    0.0000 O   0  0  0  0  0  0  0  0  0  0  0  0
    5.4641   -1.0000    0.0000 O   0  0  0  0  0  0  0  0  0  0  0  0
    2.0000   -4.0000    0.0000 O   0  0  0  0  0  0  0  0  0  0  0  0
    5.4641   -4.0000    0.0000 O   0  0  0  0  0  0  0  0  0  0  0  0
   13.2583    3.5000    0.0000 N   0  0  0  0  0  0  0  0  0  0  0  0
   11.5263    2.5000    0.0000 N   0  0  0  0  0  0  0  0  0  0  0  0
    9.7942   -0.5000    0.0000 N   0  0  0  0  0  0  0  0  0  0  0  0
    8.0622    0.5000    0.0000 N   0  0  0  0  0  0  0  0  0  0  0  0
    7.1962    2.0000    0.0000 N   0  0  0  0  0  0  0  0  0  0  0  0
    4.5981    0.5000    0.0000 N   0  0  0  0  0  0  0  0  0  0  0  0
    5.4641    2.0000    0.0000 N   0  0  0  0  0  0  0  0  0  0  0  0
    3.7320   -1.0000    0.0000 N   0  0  0  0  0  0  0  0  0  0  0  0
   13.2583    2.5000    0.0000 C   0  0  0  0  0  0  0  0  0  0  0  0
   12.3923    4.0000    0.0000 C   0  0  0  0  0  0  0  0  0  0  0  0
   12.3923    2.0000    0.0000 C   0  0  0  0  0  0  0  0  0  0  0  0
   11.5263    3.5000    0.0000 C   0  0  0  0  0  0  0  0  0  0  0  0
   14.1244    4.0000    0.0000 C   0  0  0  0  0  0  0  0  0  0  0  0
   10.6603    2.0000    0.0000 C   0  0  0  0  0  0  0  0  0  0  0  0
   14.1244    5.0000    0.0000 C   0  0  0  0  0  0  0  0  0  0  0  0
   10.6603    1.0000    0.0000 C   0  0  0  0  0  0  0  0  0  0  0  0
    9.7942    2.5000    0.0000 C   0  0  0  0  0  0  0  0  0  0  0  0
    9.7942    0.5000    0.0000 C   0  0  0  0  0  0  0  0  0  0  0  0
    8.9282    2.0000    0.0000 C   0  0  0  0  0  0  0  0  0  0  0  0
    8.9282    1.0000    0.0000 C   0  0  0  0  0  0  0  0  0  0  0  0
    7.1962    1.0000    0.0000 C   0  0  0  0  0  0  0  0  0  0  0  0
   10.6603   -1.0000    0.0000 C   0  0  0  0  0  0  0  0  0  0  0  0
    6.3301    0.5000    0.0000 C   0  0  0  0  0  0  0  0  0  0  0  0
    5.4641    1.0000    0.0000 C   0  0  0  0  0  0  0  0  0  0  0  0
   10.6603   -2.0000    0.0000 C   0  0  0  0  0  0  0  0  0  0  0  0
    6.3301    2.5000    0.0000 C   0  0  0  0  0  0  0  0  0  0  0  0
    4.5981   -0.5000    0.0000 C   0  0  0  0  0  0  0  0  0  0  0  0
    3.7320    1.0000    0.0000 C   0  0  0  0  0  0  0  0  0  0  0  0
   11.5263   -2.5000    0.0000 C   0  0  0  0  0  0  0  0  0  0  0  0
    3.7320   -2.0000    0.0000 C   0  0  0  0  0  0  0  0  0  0  0  0
    4.5981   -2.5000    0.0000 C   0  0  0  0  0  0  0  0  0  0  0  0
    2.8660   -2.5000    0.0000 C   0  0  0  0  0  0  0  0  0  0  0  0
    2.8660   -3.5000    0.0000 C   0  0  0  0  0  0  0  0  0  0  0  0
    4.5981   -3.5000    0.0000 C   0  0  0  0  0  0  0  0  0  0  0  0
    3.7320   -4.0000    0.0000 C   0  0  0  0  0  0  0  0  0  0  0  0
    2.0000   -5.0000    0.0000 C   0  0  0  0  0  0  0  0  0  0  0  0
    5.4641   -5.0000    0.0000 C   0  0  0  0  0  0  0  0  0  0  0  0
   13.4704    1.9174    0.0000 H   0  0  0  0  0  0  0  0  0  0  0  0
   13.8689    2.6077    0.0000 H   0  0  0  0  0  0  0  0  0  0  0  0
   12.7908    4.4750    0.0000 H   0  0  0  0  0  0  0  0  0  0  0  0
   11.9938    4.4750    0.0000 H   0  0  0  0  0  0  0  0  0  0  0  0
   11.9938    1.5250    0.0000 H   0  0  0  0  0  0  0  0  0  0  0  0
   12.7908    1.5250    0.0000 H   0  0  0  0  0  0  0  0  0  0  0  0
   11.3142    4.0826    0.0000 H   0  0  0  0  0  0  0  0  0  0  0  0
   10.9157    3.3923    0.0000 H   0  0  0  0  0  0  0  0  0  0  0  0
   14.3364    3.4174    0.0000 H   0  0  0  0  0  0  0  0  0  0  0  0
   14.7349    4.1077    0.0000 H   0  0  0  0  0  0  0  0  0  0  0  0
   14.7444    5.0000    0.0000 H   0  0  0  0  0  0  0  0  0  0  0  0
   14.1244    5.6200    0.0000 H   0  0  0  0  0  0  0  0  0  0  0  0
   13.5044    5.0000    0.0000 H   0  0  0  0  0  0  0  0  0  0  0  0
   11.1972    0.6900    0.0000 H   0  0  0  0  0  0  0  0  0  0  0  0
    9.7942    3.1200    0.0000 H   0  0  0  0  0  0  0  0  0  0  0  0
    8.3913    2.3100    0.0000 H   0  0  0  0  0  0  0  0  0  0  0  0
    9.2573   -0.8100    0.0000 H   0  0  0  0  0  0  0  0  0  0  0  0
    8.0622   -0.1200    0.0000 H   0  0  0  0  0  0  0  0  0  0  0  0
    6.3301   -0.1200    0.0000 H   0  0  0  0  0  0  0  0  0  0  0  0
   10.1233   -2.3100    0.0000 H   0  0  0  0  0  0  0  0  0  0  0  0
    6.3301    3.1200    0.0000 H   0  0  0  0  0  0  0  0  0  0  0  0
    4.0420    1.5369    0.0000 H   0  0  0  0  0  0  0  0  0  0  0  0
    3.1951    1.3100    0.0000 H   0  0  0  0  0  0  0  0  0  0  0  0
    3.4220    0.4631    0.0000 H   0  0  0  0  0  0  0  0  0  0  0  0
   11.5263   -3.1200    0.0000 H   0  0  0  0  0  0  0  0  0  0  0  0
   12.0632   -2.1900    0.0000 H   0  0  0  0  0  0  0  0  0  0  0  0
    3.1951   -0.6900    0.0000 H   0  0  0  0  0  0  0  0  0  0  0  0
    3.7320   -4.6200    0.0000 H   0  0  0  0  0  0  0  0  0  0  0  0
    1.3800   -5.0000    0.0000 H   0  0  0  0  0  0  0  0  0  0  0  0
    2.0000   -5.6200    0.0000 H   0  0  0  0  0  0  0  0  0  0  0  0
    2.6200   -5.0000    0.0000 H   0  0  0  0  0  0  0  0  0  0  0  0
    4.8441   -5.0000    0.0000 H   0  0  0  0  0  0  0  0  0  0  0  0
    5.4641   -5.6200    0.0000 H   0  0  0  0  0  0  0  0  0  0  0  0
    6.0841   -5.0000    0.0000 H   0  0  0  0  0  0  0  0  0  0  0  0
  1 37  1  0  0  0  0
  2 38  1  0  0  0  0
  3 28  2  0  0  0  0
  4 33  2  0  0  0  0
  5 39  1  0  0  0  0
  5 42  1  0  0  0  0
  6 40  1  0  0  0  0
  6 43  1  0  0  0  0
  7 15  1  0  0  0  0
  7 16  1  0  0  0  0
  7 19  1  0  0  0  0
  8 17  1  0  0  0  0
  8 18  1  0  0  0  0
  8 20  1  0  0  0  0
  9 24  1  0  0  0  0
  9 28  1  0  0  0  0
  9 60  1  0  0  0  0
 10 26  1  0  0  0  0
 10 27  1  0  0  0  0
 10 61  1  0  0  0  0
 11 27  1  0  0  0  0
 11 32  2  0  0  0  0
 12 30  1  0  0  0  0
 12 33  1  0  0  0  0
 12 34  1  0  0  0  0
 13 30  2  0  0  0  0
 13 32  1  0  0  0  0
 14 33  1  0  0  0  0
 14 36  1  0  0  0  0
 14 70  1  0  0  0  0
 15 17  1  0  0  0  0
 15 44  1  0  0  0  0
 15 45  1  0  0  0  0
 16 18  1  0  0  0  0
 16 46  1  0  0  0  0
 16 47  1  0  0  0  0
 17 48  1  0  0  0  0
 17 49  1  0  0  0  0
 18 50  1  0  0  0  0
 18 51  1  0  0  0  0
 19 21  1  0  0  0  0
 19 52  1  0  0  0  0
 19 53  1  0  0  0  0
 20 22  2  0  0  0  0
 20 23  1  0  0  0  0
 21 54  1  0  0  0  0
 21 55  1  0  0  0  0
 21 56  1  0  0  0  0
 22 24  1  0  0  0  0
 22 57  1  0  0  0  0
 23 25  2  0  0  0  0
 23 58  1  0  0  0  0
 24 26  2  0  0  0  0
 25 26  1  0  0  0  0
 25 59  1  0  0  0  0
 27 29  2  0  0  0  0
 28 31  1  0  0  0  0
 29 30  1  0  0  0  0
 29 62  1  0  0  0  0
 31 35  2  0  0  0  0
 31 63  1  0  0  0  0
 32 64  1  0  0  0  0
 34 65  1  0  0  0  0
 34 66  1  0  0  0  0
 34 67  1  0  0  0  0
 35 68  1  0  0  0  0
 35 69  1  0  0  0  0
 36 37  2  0  0  0  0
 36 38  1  0  0  0  0
 37 40  1  0  0  0  0
 38 39  2  0  0  0  0
 39 41  1  0  0  0  0
 40 41  2  0  0  0  0
 41 71  1  0  0  0  0
 42 72  1  0  0  0  0
 42 73  1  0  0  0  0
 42 74  1  0  0  0  0
 43 75  1  0  0  0  0
 43 76  1  0  0  0  0
 43 77  1  0  0  0  0
M  END
> <PUBCHEM_COMPOUND_CID>
118029202

> <PUBCHEM_COMPOUND_CANONICALIZED>
1

> <PUBCHEM_CACTVS_COMPLEXITY>
913

> <PUBCHEM_CACTVS_HBOND_ACCEPTOR>
9

> <PUBCHEM_CACTVS_HBOND_DONOR>
3

> <PUBCHEM_CACTVS_ROTATABLE_BOND>
10

> <PUBCHEM_CACTVS_SUBSKEYS>
AAADcfB7+AAGAAAAAAAAAAAAAAAAAAAAAAA8eIEAAAAAAAAB0AAAHgIQAAAACA7BkiY39pfIFACoACdzdACCiCkxJuAJ2CA+f9iMb2PF+9vUNChv1x/I6KeQcA8AACCACgSACDAAQQAUCQAQYAAAAAAAAA==

> <PUBCHEM_IUPAC_OPENEYE_NAME>
N-[2-[[6-[(2,6-dichloro-3,5-dimethoxy-phenyl)carbamoyl-methyl-amino]pyrimidin-4-yl]amino]-5-(4-ethylpiperazin-1-yl)phenyl]prop-2-enamide

> <PUBCHEM_IUPAC_CAS_NAME>
N-[2-[[6-[[(2,6-dichloro-3,5-dimethoxyanilino)-oxomethyl]-methylamino]-4-pyrimidinyl]amino]-5-(4-ethyl-1-piperazinyl)phenyl]-2-propenamide

> <PUBCHEM_IUPAC_NAME_MARKUP>
<I>N</I>-[2-[[6-[(2,6-dichloro-3,5-dimethoxyphenyl)carbamoyl-methylamino]pyrimidin-4-yl]amino]-5-(4-ethylpiperazin-1-yl)phenyl]prop-2-enamide

> <PUBCHEM_IUPAC_NAME>
N-[2-[[6-[(2,6-dichloro-3,5-dimethoxyphenyl)carbamoyl-methylamino]pyrimidin-4-yl]amino]-5-(4-ethylpiperazin-1-yl)phenyl]prop-2-enamide

> <PUBCHEM_IUPAC_SYSTEMATIC_NAME>
N-[2-[[6-[[2,6-bis(chloranyl)-3,5-dimethoxy-phenyl]carbamoyl-methyl-amino]pyrimidin-4-yl]amino]-5-(4-ethylpiperazin-1-yl)phenyl]prop-2-enamide

> <PUBCHEM_IUPAC_TRADITIONAL_NAME>
N-[2-[[6-[(2,6-dichloro-3,5-dimethoxy-phenyl)carbamoyl-methyl-amino]pyrimidin-4-yl]amino]-5-(4-ethylpiperazino)phenyl]acrylamide

> <PUBCHEM_IUPAC_INCHI>
InChI=1S/C29H34Cl2N8O4/c1-6-25(40)35-20-14-18(39-12-10-38(7-2)11-13-39)8-9-19(20)34-23-16-24(33-17-32-23)37(3)29(41)36-28-26(30)21(42-4)15-22(43-5)27(28)31/h6,8-9,14-17H,1,7,10-13H2,2-5H3,(H,35,40)(H,36,41)(H,32,33,34)

> <PUBCHEM_IUPAC_INCHIKEY>
MBWRLLRCTIYXDW-UHFFFAOYSA-N

> <PUBCHEM_XLOGP3_AA>
4.4

> <PUBCHEM_EXACT_MASS>
628.2080070

> <PUBCHEM_MOLECULAR_FORMULA>
C29H34Cl2N8O4

> <PUBCHEM_MOLECULAR_WEIGHT>
629.5

> <PUBCHEM_OPENEYE_CAN_SMILES>
CCN1CCN(CC1)C2=CC(=C(C=C2)NC3=CC(=NC=N3)N(C)C(=O)NC4=C(C(=CC(=C4Cl)OC)OC)Cl)NC(=O)C=C

> <PUBCHEM_OPENEYE_ISO_SMILES>
CCN1CCN(CC1)C2=CC(=C(C=C2)NC3=CC(=NC=N3)N(C)C(=O)NC4=C(C(=CC(=C4Cl)OC)OC)Cl)NC(=O)C=C

> <PUBCHEM_CACTVS_TPSA>
124

> <PUBCHEM_MONOISOTOPIC_WEIGHT>
628.2080070

> <PUBCHEM_TOTAL_CHARGE>
0

> <PUBCHEM_HEAVY_ATOM_COUNT>
43

> <PUBCHEM_ATOM_DEF_STEREO_COUNT>
0

> <PUBCHEM_ATOM_UDEF_STEREO_COUNT>
0

> <PUBCHEM_BOND_DEF_STEREO_COUNT>
0

> <PUBCHEM_BOND_UDEF_STEREO_COUNT>
0

> <PUBCHEM_ISOTOPIC_ATOM_COUNT>
0

> <PUBCHEM_COMPONENT_COUNT>
1

> <PUBCHEM_CACTVS_TAUTO_COUNT>
-1

> <PUBCHEM_COORDINATE_TYPE>
1
5
255

> <PUBCHEM_BONDANNOTATIONS>
11  27  8
11  32  8
13  30  8
13  32  8
20  22  8
20  23  8
22  24  8
23  25  8
24  26  8
25  26  8
27  29  8
29  30  8
36  37  8
36  38  8
37  40  8
38  39  8
39  41  8
40  41  8

$$$$
134391533
  -OEChem-11282412102D

 59 62  0     0  0  0  0  0  0999 V2000
   15.9183    2.3443    0.0000 F   0  0  0  0  0  0  0  0  0  0  0  0
   17.0207    1.4585    0.0000 F   0  0  0  0  0  0  0  0  0  0  0  0
   16.1350    0.3561    0.0000 F   0  0  0  0  0  0  0  0  0  0  0  0
   12.5628    0.4696    0.0000 O   0  0  0  0  0  0  0  0  0  0  0  0
   10.7263    0.4571    0.0000 O   0  0  0  0  0  0  0  0  0  0  0  0
    2.0000    0.4196    0.0000 O   0  0  0  0  0  0  0  0  0  0  0  0
    2.0000   -1.5804    0.0000 O   0  0  0  0  0  0  0  0  0  0  0  0
   13.5417    0.2655    0.0000 N   0  0  0  0  0  0  0  0  0  0  0  0
   11.5865    1.9604    0.0000 N   0  0  0  0  0  0  0  0  0  0  0  0
    7.2583    1.4437    0.0000 N   0  0  0  0  0  0  0  0  0  0  0  0
    5.4920   -1.6151    0.0000 N   0  0  0  0  0  0  0  0  0  0  0  0
   15.0325    1.2418    0.0000 C   0  0  0  0  0  0  0  0  0  0  0  0
   14.0384    1.1334    0.0000 C   0  0  0  0  0  0  0  0  0  0  0  0
   16.0266    1.3502    0.0000 C   0  0  0  0  0  0  0  0  0  0  0  0
   15.1409    0.2477    0.0000 C   0  0  0  0  0  0  0  0  0  0  0  0
   14.9241    2.2359    0.0000 C   0  0  0  0  0  0  0  0  0  0  0  0
   13.3664    1.8740    0.0000 C   0  0  0  0  0  0  0  0  0  0  0  0
   12.4544    1.4638    0.0000 C   0  0  0  0  0  0  0  0  0  0  0  0
    9.8544    1.9537    0.0000 C   0  0  0  0  0  0  0  0  0  0  0  0
   10.7224    1.4571    0.0000 C   0  0  0  0  0  0  0  0  0  0  0  0
    8.9904    1.4504    0.0000 C   0  0  0  0  0  0  0  0  0  0  0  0
    4.5981   -0.0804    0.0000 C   0  0  0  0  0  0  0  0  0  0  0  0
    6.3981   -0.0596    0.0000 C   0  0  0  0  0  0  0  0  0  0  0  0
    7.2622    0.4437    0.0000 C   0  0  0  0  0  0  0  0  0  0  0  0
    4.5981   -1.0804    0.0000 C   0  0  0  0  0  0  0  0  0  0  0  0
    5.4920    0.4542    0.0000 C   0  0  0  0  0  0  0  0  0  0  0  0
    8.9942    0.4504    0.0000 C   0  0  0  0  0  0  0  0  0  0  0  0
    8.1301   -0.0529    0.0000 C   0  0  0  0  0  0  0  0  0  0  0  0
    3.7320    0.4196    0.0000 C   0  0  0  0  0  0  0  0  0  0  0  0
    8.1224    1.9471    0.0000 C   0  0  0  0  0  0  0  0  0  0  0  0
    3.7320   -1.5804    0.0000 C   0  0  0  0  0  0  0  0  0  0  0  0
    6.3981   -1.1012    0.0000 C   0  0  0  0  0  0  0  0  0  0  0  0
    2.8660   -0.0804    0.0000 C   0  0  0  0  0  0  0  0  0  0  0  0
    2.8660   -1.0804    0.0000 C   0  0  0  0  0  0  0  0  0  0  0  0
    2.0000    1.4196    0.0000 C   0  0  0  0  0  0  0  0  0  0  0  0
    2.0000   -2.5804    0.0000 C   0  0  0  0  0  0  0  0  0  0  0  0
   14.5245    0.1805    0.0000 H   0  0  0  0  0  0  0  0  0  0  0  0
   15.2081   -0.3686    0.0000 H   0  0  0  0  0  0  0  0  0  0  0  0
   15.7572    0.3149    0.0000 H   0  0  0  0  0  0  0  0  0  0  0  0
   15.5405    2.3031    0.0000 H   0  0  0  0  0  0  0  0  0  0  0  0
   14.8570    2.8523    0.0000 H   0  0  0  0  0  0  0  0  0  0  0  0
   14.3078    2.1687    0.0000 H   0  0  0  0  0  0  0  0  0  0  0  0
   13.4930    2.4810    0.0000 H   0  0  0  0  0  0  0  0  0  0  0  0
   11.5841    2.5804    0.0000 H   0  0  0  0  0  0  0  0  0  0  0  0
   10.2511    2.4302    0.0000 H   0  0  0  0  0  0  0  0  0  0  0  0
    9.4541    2.4272    0.0000 H   0  0  0  0  0  0  0  0  0  0  0  0
    5.4848    1.0742    0.0000 H   0  0  0  0  0  0  0  0  0  0  0  0
    9.5323    0.1425    0.0000 H   0  0  0  0  0  0  0  0  0  0  0  0
    3.7320    1.0396    0.0000 H   0  0  0  0  0  0  0  0  0  0  0  0
    8.1325   -0.6729    0.0000 H   0  0  0  0  0  0  0  0  0  0  0  0
    8.1200    2.5671    0.0000 H   0  0  0  0  0  0  0  0  0  0  0  0
    3.7320   -2.2004    0.0000 H   0  0  0  0  0  0  0  0  0  0  0  0
    6.9338   -1.4133    0.0000 H   0  0  0  0  0  0  0  0  0  0  0  0
    2.6200    1.4196    0.0000 H   0  0  0  0  0  0  0  0  0  0  0  0
    2.0000    2.0396    0.0000 H   0  0  0  0  0  0  0  0  0  0  0  0
    1.3800    1.4196    0.0000 H   0  0  0  0  0  0  0  0  0  0  0  0
    1.3800   -2.5804    0.0000 H   0  0  0  0  0  0  0  0  0  0  0  0
    2.0000   -3.2004    0.0000 H   0  0  0  0  0  0  0  0  0  0  0  0
    2.6200   -2.5804    0.0000 H   0  0  0  0  0  0  0  0  0  0  0  0
  1 14  1  0  0  0  0
  2 14  1  0  0  0  0
  3 14  1  0  0  0  0
  4  8  1  0  0  0  0
  4 18  1  0  0  0  0
  5 20  2  0  0  0  0
  6 33  1  0  0  0  0
  6 35  1  0  0  0  0
  7 34  1  0  0  0  0
  7 36  1  0  0  0  0
  8 13  2  0  0  0  0
  9 18  1  0  0  0  0
  9 20  1  0  0  0  0
  9 44  1  0  0  0  0
 10 24  2  0  0  0  0
 10 30  1  0  0  0  0
 11 25  2  0  0  0  0
 11 32  1  0  0  0  0
 12 13  1  0  0  0  0
 12 14  1  0  0  0  0
 12 15  1  0  0  0  0
 12 16  1  0  0  0  0
 13 17  1  0  0  0  0
 15 37  1  0  0  0  0
 15 38  1  0  0  0  0
 15 39  1  0  0  0  0
 16 40  1  0  0  0  0
 16 41  1  0  0  0  0
 16 42  1  0  0  0  0
 17 18  2  0  0  0  0
 17 43  1  0  0  0  0
 19 20  1  0  0  0  0
 19 21  1  0  0  0  0
 19 45  1  0  0  0  0
 19 46  1  0  0  0  0
 21 27  1  0  0  0  0
 21 30  2  0  0  0  0
 22 25  1  0  0  0  0
 22 26  2  0  0  0  0
 22 29  1  0  0  0  0
 23 24  1  0  0  0  0
 23 26  1  0  0  0  0
 23 32  2  0  0  0  0
 24 28  1  0  0  0  0
 25 31  1  0  0  0  0
 26 47  1  0  0  0  0
 27 28  2  0  0  0  0
 27 48  1  0  0  0  0
 28 50  1  0  0  0  0
 29 33  2  0  0  0  0
 29 49  1  0  0  0  0
 30 51  1  0  0  0  0
 31 34  2  0  0  0  0
 31 52  1  0  0  0  0
 32 53  1  0  0  0  0
 33 34  1  0  0  0  0
 35 54  1  0  0  0  0
 35 55  1  0  0  0  0
 35 56  1  0  0  0  0
 36 57  1  0  0  0  0
 36 58  1  0  0  0  0
 36 59  1  0  0  0  0
M  END
> <PUBCHEM_COMPOUND_CID>
134391533

> <PUBCHEM_COMPOUND_CANONICALIZED>
1

> <PUBCHEM_CACTVS_COMPLEXITY>
755

> <PUBCHEM_CACTVS_HBOND_ACCEPTOR>
10

> <PUBCHEM_CACTVS_HBOND_DONOR>
1

> <PUBCHEM_CACTVS_ROTATABLE_BOND>
7

> <PUBCHEM_CACTVS_SUBSKEYS>
AAADceB7uYAAAAAAAAAAAAAAAAAAAWAAAAA8WIAAAAAAAACx/gAAHwAUAAAADgzBnhY+xvLYFACpAzV3VgCCiCA1IiAo2CE+7NsNJvrE9duENapm1DnK6Ue82POPIEABAgACQABAgAIEAASAAAAAAAAAAA==

> <PUBCHEM_IUPAC_OPENEYE_NAME>
2-[6-(6,7-dimethoxy-3-quinolyl)-3-pyridyl]-N-[3-(2,2,2-trifluoro-1,1-dimethyl-ethyl)isoxazol-5-yl]acetamide

> <PUBCHEM_IUPAC_CAS_NAME>
2-[6-(6,7-dimethoxy-3-quinolinyl)-3-pyridinyl]-N-[3-(1,1,1-trifluoro-2-methylpropan-2-yl)-5-isoxazolyl]acetamide

> <PUBCHEM_IUPAC_NAME_MARKUP>
2-[6-(6,7-dimethoxyquinolin-3-yl)pyridin-3-yl]-<I>N</I>-[3-(1,1,1-trifluoro-2-methylpropan-2-yl)-1,2-oxazol-5-yl]acetamide

> <PUBCHEM_IUPAC_NAME>
2-[6-(6,7-dimethoxyquinolin-3-yl)pyridin-3-yl]-N-[3-(1,1,1-trifluoro-2-methylpropan-2-yl)-1,2-oxazol-5-yl]acetamide

> <PUBCHEM_IUPAC_SYSTEMATIC_NAME>
2-[6-(6,7-dimethoxyquinolin-3-yl)pyridin-3-yl]-N-[3-[1,1,1-tris(fluoranyl)-2-methyl-propan-2-yl]-1,2-oxazol-5-yl]ethanamide

> <PUBCHEM_IUPAC_TRADITIONAL_NAME>
2-[6-(6,7-dimethoxy-3-quinolyl)-3-pyridyl]-N-[3-(2,2,2-trifluoro-1,1-dimethyl-ethyl)isoxazol-5-yl]acetamide

> <PUBCHEM_IUPAC_INCHI>
InChI=1S/C25H23F3N4O4/c1-24(2,25(26,27)28)21-11-23(36-32-21)31-22(33)7-14-5-6-17(29-12-14)16-8-15-9-19(34-3)20(35-4)10-18(15)30-13-16/h5-6,8-13H,7H2,1-4H3,(H,31,33)

> <PUBCHEM_IUPAC_INCHIKEY>
KOLQINCWMXQEOF-UHFFFAOYSA-N

> <PUBCHEM_XLOGP3_AA>
4.6

> <PUBCHEM_EXACT_MASS>
500.16713971

> <PUBCHEM_MOLECULAR_FORMULA>
C25H23F3N4O4

> <PUBCHEM_MOLECULAR_WEIGHT>
500.5

> <PUBCHEM_OPENEYE_CAN_SMILES>
CC(C)(C1=NOC(=C1)NC(=O)CC2=CN=C(C=C2)C3=CN=C4C=C(C(=CC4=C3)OC)OC)C(F)(F)F

> <PUBCHEM_OPENEYE_ISO_SMILES>
CC(C)(C1=NOC(=C1)NC(=O)CC2=CN=C(C=C2)C3=CN=C4C=C(C(=CC4=C3)OC)OC)C(F)(F)F

> <PUBCHEM_CACTVS_TPSA>
99.4

> <PUBCHEM_MONOISOTOPIC_WEIGHT>
500.16713971

> <PUBCHEM_TOTAL_CHARGE>
0

> <PUBCHEM_HEAVY_ATOM_COUNT>
36

> <PUBCHEM_ATOM_DEF_STEREO_COUNT>
0

> <PUBCHEM_ATOM_UDEF_STEREO_COUNT>
0

> <PUBCHEM_BOND_DEF_STEREO_COUNT>
0

> <PUBCHEM_BOND_UDEF_STEREO_COUNT>
0

> <PUBCHEM_ISOTOPIC_ATOM_COUNT>
0

> <PUBCHEM_COMPONENT_COUNT>
1

> <PUBCHEM_CACTVS_TAUTO_COUNT>
-1

> <PUBCHEM_COORDINATE_TYPE>
1
5
255

> <PUBCHEM_BONDANNOTATIONS>
10  24  8
10  30  8
11  25  8
11  32  8
13  17  8
17  18  8
21  27  8
21  30  8
22  25  8
22  26  8
22  29  8
23  26  8
23  32  8
24  28  8
25  31  8
27  28  8
29  33  8
31  34  8
33  34  8
4  18  8
4  8  8
8  13  8

$$$$
154824631
  -OEChem-11282412102D

 69 73  0     0  0  0  0  0  0999 V2000
    9.7758   -5.0022    0.0000 Cl  0  0  0  0  0  0  0  0  0  0  0  0
    3.7320    5.5522    0.0000 O   0  0  0  0  0  0  0  0  0  0  0  0
    4.5981    1.0522    0.0000 O   0  0  0  0  0  0  0  0  0  0  0  0
   11.5193   -4.0223    0.0000 O   0  0  0  0  0  0  0  0  0  0  0  0
    3.7320    0.5522    0.0000 O   0  0  0  0  0  0  0  0  0  0  0  0
    3.7320    3.5522    0.0000 N   0  0  0  0  0  0  0  0  0  0  0  0
    4.5981   -0.9478    0.0000 N   0  0  0  0  0  0  0  0  0  0  0  0
    8.0785   -1.9824    0.0000 N   0  0  0  0  0  0  0  0  0  0  0  0
    8.0901    1.0869    0.0000 N   0  0  0  0  0  0  0  0  0  0  0  0
    8.9962   -0.4686    0.0000 N   0  0  0  0  0  0  0  0  0  0  0  0
   14.1230   -3.5524    0.0000 N   0  0  0  0  0  0  0  0  0  0  0  0
    2.8660    4.0522    0.0000 C   0  0  0  0  0  0  0  0  0  0  0  0
    4.5981    4.0522    0.0000 C   0  0  0  0  0  0  0  0  0  0  0  0
    3.7320    2.5522    0.0000 C   0  0  0  0  0  0  0  0  0  0  0  0
    2.8660    5.0522    0.0000 C   0  0  0  0  0  0  0  0  0  0  0  0
    4.5981    5.0522    0.0000 C   0  0  0  0  0  0  0  0  0  0  0  0
    4.5981    2.0522    0.0000 C   0  0  0  0  0  0  0  0  0  0  0  0
    5.4641    0.5522    0.0000 C   0  0  0  0  0  0  0  0  0  0  0  0
    5.4641   -0.4478    0.0000 C   0  0  0  0  0  0  0  0  0  0  0  0
    7.1962   -0.4478    0.0000 C   0  0  0  0  0  0  0  0  0  0  0  0
    6.3301    1.0522    0.0000 C   0  0  0  0  0  0  0  0  0  0  0  0
    7.1962    0.5522    0.0000 C   0  0  0  0  0  0  0  0  0  0  0  0
    6.3301   -0.9478    0.0000 C   0  0  0  0  0  0  0  0  0  0  0  0
    8.0901   -0.9824    0.0000 C   0  0  0  0  0  0  0  0  0  0  0  0
    8.9387   -2.4924    0.0000 C   0  0  0  0  0  0  0  0  0  0  0  0
    8.9962    0.5730    0.0000 C   0  0  0  0  0  0  0  0  0  0  0  0
    3.7320   -0.4478    0.0000 C   0  0  0  0  0  0  0  0  0  0  0  0
    8.9271   -3.4923    0.0000 C   0  0  0  0  0  0  0  0  0  0  0  0
    9.8105   -2.0024    0.0000 C   0  0  0  0  0  0  0  0  0  0  0  0
   10.6591   -3.5123    0.0000 C   0  0  0  0  0  0  0  0  0  0  0  0
    9.7873   -4.0023    0.0000 C   0  0  0  0  0  0  0  0  0  0  0  0
   10.6707   -2.5124    0.0000 C   0  0  0  0  0  0  0  0  0  0  0  0
    2.8660   -0.9478    0.0000 C   0  0  0  0  0  0  0  0  0  0  0  0
   12.3910   -3.5323    0.0000 C   0  0  0  0  0  0  0  0  0  0  0  0
   13.2512   -4.0423    0.0000 C   0  0  0  0  0  0  0  0  0  0  0  0
    2.0000   -0.4478    0.0000 C   0  0  0  0  0  0  0  0  0  0  0  0
   13.2396   -5.0422    0.0000 C   0  0  0  0  0  0  0  0  0  0  0  0
   14.0998   -5.5522    0.0000 C   0  0  0  0  0  0  0  0  0  0  0  0
   14.9831   -4.0623    0.0000 C   0  0  0  0  0  0  0  0  0  0  0  0
   14.9716   -5.0623    0.0000 C   0  0  0  0  0  0  0  0  0  0  0  0
    2.2554    4.1599    0.0000 H   0  0  0  0  0  0  0  0  0  0  0  0
    2.6540    3.4696    0.0000 H   0  0  0  0  0  0  0  0  0  0  0  0
    4.8101    3.4696    0.0000 H   0  0  0  0  0  0  0  0  0  0  0  0
    5.2087    4.1599    0.0000 H   0  0  0  0  0  0  0  0  0  0  0  0
    3.1215    2.6599    0.0000 H   0  0  0  0  0  0  0  0  0  0  0  0
    3.5200    1.9696    0.0000 H   0  0  0  0  0  0  0  0  0  0  0  0
    2.6540    5.6348    0.0000 H   0  0  0  0  0  0  0  0  0  0  0  0
    2.2554    4.9446    0.0000 H   0  0  0  0  0  0  0  0  0  0  0  0
    5.2087    4.9446    0.0000 H   0  0  0  0  0  0  0  0  0  0  0  0
    4.8101    5.6348    0.0000 H   0  0  0  0  0  0  0  0  0  0  0  0
    5.2087    1.9446    0.0000 H   0  0  0  0  0  0  0  0  0  0  0  0
    4.8101    2.6348    0.0000 H   0  0  0  0  0  0  0  0  0  0  0  0
    6.3301    1.6722    0.0000 H   0  0  0  0  0  0  0  0  0  0  0  0
    6.3301   -1.5678    0.0000 H   0  0  0  0  0  0  0  0  0  0  0  0
    4.5981   -1.5678    0.0000 H   0  0  0  0  0  0  0  0  0  0  0  0
    7.5380   -2.2861    0.0000 H   0  0  0  0  0  0  0  0  0  0  0  0
    9.5319    0.8851    0.0000 H   0  0  0  0  0  0  0  0  0  0  0  0
    8.3867   -3.7960    0.0000 H   0  0  0  0  0  0  0  0  0  0  0  0
    9.8176   -1.3824    0.0000 H   0  0  0  0  0  0  0  0  0  0  0  0
   11.2111   -2.2086    0.0000 H   0  0  0  0  0  0  0  0  0  0  0  0
    2.8660   -1.5678    0.0000 H   0  0  0  0  0  0  0  0  0  0  0  0
   12.7950   -3.0620    0.0000 H   0  0  0  0  0  0  0  0  0  0  0  0
   11.9980   -3.0528    0.0000 H   0  0  0  0  0  0  0  0  0  0  0  0
    2.0000    0.1722    0.0000 H   0  0  0  0  0  0  0  0  0  0  0  0
    1.4631   -0.7578    0.0000 H   0  0  0  0  0  0  0  0  0  0  0  0
   12.6992   -5.3460    0.0000 H   0  0  0  0  0  0  0  0  0  0  0  0
   14.0927   -6.1722    0.0000 H   0  0  0  0  0  0  0  0  0  0  0  0
   15.5236   -3.7586    0.0000 H   0  0  0  0  0  0  0  0  0  0  0  0
   15.5049   -5.3785    0.0000 H   0  0  0  0  0  0  0  0  0  0  0  0
  1 31  1  0  0  0  0
  2 15  1  0  0  0  0
  2 16  1  0  0  0  0
  3 17  1  0  0  0  0
  3 18  1  0  0  0  0
  4 30  1  0  0  0  0
  4 34  1  0  0  0  0
  5 27  2  0  0  0  0
  6 12  1  0  0  0  0
  6 13  1  0  0  0  0
  6 14  1  0  0  0  0
  7 19  1  0  0  0  0
  7 27  1  0  0  0  0
  7 55  1  0  0  0  0
  8 24  1  0  0  0  0
  8 25  1  0  0  0  0
  8 56  1  0  0  0  0
  9 22  1  0  0  0  0
  9 26  2  0  0  0  0
 10 24  2  0  0  0  0
 10 26  1  0  0  0  0
 11 35  1  0  0  0  0
 11 39  2  0  0  0  0
 12 15  1  0  0  0  0
 12 41  1  0  0  0  0
 12 42  1  0  0  0  0
 13 16  1  0  0  0  0
 13 43  1  0  0  0  0
 13 44  1  0  0  0  0
 14 17  1  0  0  0  0
 14 45  1  0  0  0  0
 14 46  1  0  0  0  0
 15 47  1  0  0  0  0
 15 48  1  0  0  0  0
 16 49  1  0  0  0  0
 16 50  1  0  0  0  0
 17 51  1  0  0  0  0
 17 52  1  0  0  0  0
 18 19  2  0  0  0  0
 18 21  1  0  0  0  0
 19 23  1  0  0  0  0
 20 22  1  0  0  0  0
 20 23  2  0  0  0  0
 20 24  1  0  0  0  0
 21 22  2  0  0  0  0
 21 53  1  0  0  0  0
 23 54  1  0  0  0  0
 25 28  2  0  0  0  0
 25 29  1  0  0  0  0
 26 57  1  0  0  0  0
 27 33  1  0  0  0  0
 28 31  1  0  0  0  0
 28 58  1  0  0  0  0
 29 32  2  0  0  0  0
 29 59  1  0  0  0  0
 30 31  2  0  0  0  0
 30 32  1  0  0  0  0
 32 60  1  0  0  0  0
 33 36  2  0  0  0  0
 33 61  1  0  0  0  0
 34 35  1  0  0  0  0
 34 62  1  0  0  0  0
 34 63  1  0  0  0  0
 35 37  2  0  0  0  0
 36 64  1  0  0  0  0
 36 65  1  0  0  0  0
 37 38  1  0  0  0  0
 37 66  1  0  0  0  0
 38 40  2  0  0  0  0
 38 67  1  0  0  0  0
 39 40  1  0  0  0  0
 39 68  1  0  0  0  0
 40 69  1  0  0  0  0
M  END
> <PUBCHEM_COMPOUND_CID>
154824631

> <PUBCHEM_COMPOUND_CANONICALIZED>
1

> <PUBCHEM_CACTVS_COMPLEXITY>
805

> <PUBCHEM_CACTVS_HBOND_ACCEPTOR>
9

> <PUBCHEM_CACTVS_HBOND_DONOR>
2

> <PUBCHEM_CACTVS_ROTATABLE_BOND>
11

> <PUBCHEM_CACTVS_SUBSKEYS>
AAADceB7uAAEAAAAAAAAAAAAAAAAAAAAAAA8eLECAAAAAACx/AAAHgIQAAAADA7hniY99vfIFACoAzd3dASCiCkxJ+AJ2CA/b9iOLuPF+9uHPCju1BvY6Kew0AMOIECAQgICGABAgQCEBAQwAAAAAAAAAA==

> <PUBCHEM_IUPAC_OPENEYE_NAME>
N-[4-[3-chloro-4-(2-pyridylmethoxy)anilino]-7-(2-morpholinoethoxy)quinazolin-6-yl]prop-2-enamide

> <PUBCHEM_IUPAC_CAS_NAME>
N-[4-[3-chloro-4-(2-pyridinylmethoxy)anilino]-7-[2-(4-morpholinyl)ethoxy]-6-quinazolinyl]-2-propenamide

> <PUBCHEM_IUPAC_NAME_MARKUP>
<I>N</I>-[4-[3-chloro-4-(pyridin-2-ylmethoxy)anilino]-7-(2-morpholin-4-ylethoxy)quinazolin-6-yl]prop-2-enamide

> <PUBCHEM_IUPAC_NAME>
N-[4-[3-chloro-4-(pyridin-2-ylmethoxy)anilino]-7-(2-morpholin-4-ylethoxy)quinazolin-6-yl]prop-2-enamide

> <PUBCHEM_IUPAC_SYSTEMATIC_NAME>
N-[4-[[3-chloranyl-4-(pyridin-2-ylmethoxy)phenyl]amino]-7-(2-morpholin-4-ylethoxy)quinazolin-6-yl]prop-2-enamide

> <PUBCHEM_IUPAC_TRADITIONAL_NAME>
N-[4-[3-chloro-4-(2-pyridylmethoxy)anilino]-7-(2-morpholinoethoxy)quinazolin-6-yl]acrylamide

> <PUBCHEM_IUPAC_INCHI>
InChI=1S/C29H29ClN6O4/c1-2-28(37)35-25-16-22-24(17-27(25)39-14-11-36-9-12-38-13-10-36)32-19-33-29(22)34-20-6-7-26(23(30)15-20)40-18-21-5-3-4-8-31-21/h2-8,15-17,19H,1,9-14,18H2,(H,35,37)(H,32,33,34)

> <PUBCHEM_IUPAC_INCHIKEY>
HIBPKFXWOPYJPZ-UHFFFAOYSA-N

> <PUBCHEM_XLOGP3_AA>
3.9

> <PUBCHEM_EXACT_MASS>
560.1938811

> <PUBCHEM_MOLECULAR_FORMULA>
C29H29ClN6O4

> <PUBCHEM_MOLECULAR_WEIGHT>
561.0

> <PUBCHEM_OPENEYE_CAN_SMILES>
C=CC(=O)NC1=C(C=C2C(=C1)C(=NC=N2)NC3=CC(=C(C=C3)OCC4=CC=CC=N4)Cl)OCCN5CCOCC5

> <PUBCHEM_OPENEYE_ISO_SMILES>
C=CC(=O)NC1=C(C=C2C(=C1)C(=NC=N2)NC3=CC(=C(C=C3)OCC4=CC=CC=N4)Cl)OCCN5CCOCC5

> <PUBCHEM_CACTVS_TPSA>
111

> <PUBCHEM_MONOISOTOPIC_WEIGHT>
560.1938811

> <PUBCHEM_TOTAL_CHARGE>
0

> <PUBCHEM_HEAVY_ATOM_COUNT>
40

> <PUBCHEM_ATOM_DEF_STEREO_COUNT>
0

> <PUBCHEM_ATOM_UDEF_STEREO_COUNT>
0

> <PUBCHEM_BOND_DEF_STEREO_COUNT>
0

> <PUBCHEM_BOND_UDEF_STEREO_COUNT>
0

> <PUBCHEM_ISOTOPIC_ATOM_COUNT>
0

> <PUBCHEM_COMPONENT_COUNT>
1

> <PUBCHEM_CACTVS_TAUTO_COUNT>
-1

> <PUBCHEM_COORDINATE_TYPE>
1
5
255

> <PUBCHEM_BONDANNOTATIONS>
10  24  8
10  26  8
11  35  8
11  39  8
18  19  8
18  21  8
19  23  8
20  22  8
20  23  8
20  24  8
21  22  8
25  28  8
25  29  8
28  31  8
29  32  8
30  31  8
30  32  8
35  37  8
37  38  8
38  40  8
39  40  8
9  22  8
9  26  8

$$$$
72435
  -OEChem-11282412102D

 52 56  0     1  0  0  0  0  0999 V2000
    5.7497    3.0374    0.0000 O   0  0  0  0  0  0  0  0  0  0  0  0
    2.8197    1.9626    0.0000 O   0  0  0  0  0  0  0  0  0  0  0  0
    7.1333    1.9234    0.0000 O   0  0  0  0  0  0  0  0  0  0  0  0
    3.4519   -2.6190    0.0000 O   0  0  0  0  0  0  0  0  0  0  0  0
    2.0000   -1.7807    0.0000 O   0  0  0  0  0  0  0  0  0  0  0  0
    7.1498   -2.5374    0.0000 O   0  0  0  0  0  0  0  0  0  0  0  0
    8.8819    0.4626    0.0000 O   0  0  0  0  0  0  0  0  0  0  0  0
    8.8819   -1.5374    0.0000 O   0  0  0  0  0  0  0  0  0  0  0  0
    4.5518    1.9626    0.0000 C   0  0  1  0  0  0  0  0  0  0  0  0
    5.4178    1.4626    0.0000 C   0  0  2  0  0  0  0  0  0  0  0  0
    5.4178    0.4626    0.0000 C   0  0  1  0  0  0  0  0  0  0  0  0
    3.6857    1.4626    0.0000 C   0  0  2  0  0  0  0  0  0  0  0  0
    4.5518   -0.0374    0.0000 C   0  0  0  0  0  0  0  0  0  0  0  0
    4.7610    2.9344    0.0000 C   0  0  0  0  0  0  0  0  0  0  0  0
    3.6857    0.4626    0.0000 C   0  0  0  0  0  0  0  0  0  0  0  0
    6.1548    2.1296    0.0000 C   0  0  0  0  0  0  0  0  0  0  0  0
    6.2838   -0.0374    0.0000 C   0  0  0  0  0  0  0  0  0  0  0  0
    4.5678   -1.0789    0.0000 C   0  0  0  0  0  0  0  0  0  0  0  0
    2.7757   -0.0443    0.0000 C   0  0  0  0  0  0  0  0  0  0  0  0
    3.6698   -1.6067    0.0000 C   0  0  0  0  0  0  0  0  0  0  0  0
    2.7677   -1.0859    0.0000 C   0  0  0  0  0  0  0  0  0  0  0  0
    7.1498    0.4626    0.0000 C   0  0  0  0  0  0  0  0  0  0  0  0
    6.2838   -1.0374    0.0000 C   0  0  0  0  0  0  0  0  0  0  0  0
    7.1498   -1.5374    0.0000 C   0  0  0  0  0  0  0  0  0  0  0  0
    8.0159   -0.0374    0.0000 C   0  0  0  0  0  0  0  0  0  0  0  0
    8.0159   -1.0374    0.0000 C   0  0  0  0  0  0  0  0  0  0  0  0
    2.4220   -2.7263    0.0000 C   0  0  0  0  0  0  0  0  0  0  0  0
    8.0159   -3.0374    0.0000 C   0  0  0  0  0  0  0  0  0  0  0  0
    8.8819    1.4626    0.0000 C   0  0  0  0  0  0  0  0  0  0  0  0
    9.7479   -1.0374    0.0000 C   0  0  0  0  0  0  0  0  0  0  0  0
    3.8647    2.4631    0.0000 H   0  0  0  0  0  0  0  0  0  0  0  0
    6.1947    1.1178    0.0000 H   0  0  0  0  0  0  0  0  0  0  0  0
    5.4178   -0.1574    0.0000 H   0  0  0  0  0  0  0  0  0  0  0  0
    3.6857    2.0826    0.0000 H   0  0  0  0  0  0  0  0  0  0  0  0
    4.7618    3.5544    0.0000 H   0  0  0  0  0  0  0  0  0  0  0  0
    4.1445    3.0004    0.0000 H   0  0  0  0  0  0  0  0  0  0  0  0
    5.1083   -1.3827    0.0000 H   0  0  0  0  0  0  0  0  0  0  0  0
    2.2424    0.2719    0.0000 H   0  0  0  0  0  0  0  0  0  0  0  0
    2.8197    2.5826    0.0000 H   0  0  0  0  0  0  0  0  0  0  0  0
    7.1498    1.0826    0.0000 H   0  0  0  0  0  0  0  0  0  0  0  0
    5.7469   -1.3474    0.0000 H   0  0  0  0  0  0  0  0  0  0  0  0
    1.8324   -2.9181    0.0000 H   0  0  0  0  0  0  0  0  0  0  0  0
    2.5507   -3.3328    0.0000 H   0  0  0  0  0  0  0  0  0  0  0  0
    7.7059   -3.5744    0.0000 H   0  0  0  0  0  0  0  0  0  0  0  0
    8.5528   -3.3474    0.0000 H   0  0  0  0  0  0  0  0  0  0  0  0
    8.3259   -2.5005    0.0000 H   0  0  0  0  0  0  0  0  0  0  0  0
    9.5019    1.4626    0.0000 H   0  0  0  0  0  0  0  0  0  0  0  0
    8.8819    2.0826    0.0000 H   0  0  0  0  0  0  0  0  0  0  0  0
    8.2619    1.4626    0.0000 H   0  0  0  0  0  0  0  0  0  0  0  0
   10.0579   -1.5744    0.0000 H   0  0  0  0  0  0  0  0  0  0  0  0
   10.2848   -0.7274    0.0000 H   0  0  0  0  0  0  0  0  0  0  0  0
    9.4379   -0.5005    0.0000 H   0  0  0  0  0  0  0  0  0  0  0  0
  1 14  1  0  0  0  0
  1 16  1  0  0  0  0
 12  2  1  6  0  0  0
  2 39  1  0  0  0  0
  3 16  2  0  0  0  0
  4 20  1  0  0  0  0
  4 27  1  0  0  0  0
  5 21  1  0  0  0  0
  5 27  1  0  0  0  0
  6 24  1  0  0  0  0
  6 28  1  0  0  0  0
  7 25  1  0  0  0  0
  7 29  1  0  0  0  0
  8 26  1  0  0  0  0
  8 30  1  0  0  0  0
  9 10  1  0  0  0  0
  9 12  1  0  0  0  0
  9 14  1  0  0  0  0
  9 31  1  6  0  0  0
 10 11  1  0  0  0  0
 10 16  1  0  0  0  0
 10 32  1  6  0  0  0
 11 13  1  0  0  0  0
 11 17  1  6  0  0  0
 11 33  1  0  0  0  0
 12 15  1  0  0  0  0
 12 34  1  0  0  0  0
 13 15  1  0  0  0  0
 13 18  2  0  0  0  0
 14 35  1  0  0  0  0
 14 36  1  0  0  0  0
 15 19  2  0  0  0  0
 17 22  2  0  0  0  0
 17 23  1  0  0  0  0
 18 20  1  0  0  0  0
 18 37  1  0  0  0  0
 19 21  1  0  0  0  0
 19 38  1  0  0  0  0
 20 21  2  0  0  0  0
 22 25  1  0  0  0  0
 22 40  1  0  0  0  0
 23 24  2  0  0  0  0
 23 41  1  0  0  0  0
 24 26  1  0  0  0  0
 25 26  2  0  0  0  0
 27 42  1  0  0  0  0
 27 43  1  0  0  0  0
 28 44  1  0  0  0  0
 28 45  1  0  0  0  0
 28 46  1  0  0  0  0
 29 47  1  0  0  0  0
 29 48  1  0  0  0  0
 29 49  1  0  0  0  0
 30 50  1  0  0  0  0
 30 51  1  0  0  0  0
 30 52  1  0  0  0  0
M  END
> <PUBCHEM_COMPOUND_CID>
72435

> <PUBCHEM_COMPOUND_CANONICALIZED>
1

> <PUBCHEM_CACTVS_COMPLEXITY>
629

> <PUBCHEM_CACTVS_HBOND_ACCEPTOR>
8

> <PUBCHEM_CACTVS_HBOND_DONOR>
1

> <PUBCHEM_CACTVS_ROTATABLE_BOND>
4

> <PUBCHEM_CACTVS_SUBSKEYS>
AAADceB4PAAAAAAAAAAAAAAAAAAAASJAAAAwYMAAAAAAAEjBQAAAGgAACAAADRSgmAMyDoAABgCIAiDSCAACCAAgIAAAiAEGiIgdNzKEMRqicCIlwBUOuAfK6PyOoAABCAAQQADAAAYQADCAAAAAAAAAAA==

> <PUBCHEM_IUPAC_OPENEYE_NAME>
(5R,5aR,8aS,9R)-5-hydroxy-9-(3,4,5-trimethoxyphenyl)-5a,6,8a,9-tetrahydro-5H-isobenzofuro[5,6-f][1,3]benzodioxol-8-one

> <PUBCHEM_IUPAC_CAS_NAME>
(5R,5aR,8aS,9R)-5-hydroxy-9-(3,4,5-trimethoxyphenyl)-5a,6,8a,9-tetrahydro-5H-isobenzofuro[5,6-f][1,3]benzodioxol-8-one

> <PUBCHEM_IUPAC_NAME_MARKUP>
(5<I>R</I>,5<I>a</I><I>R</I>,8<I>a</I><I>S</I>,9<I>R</I>)-5-hydroxy-9-(3,4,5-trimethoxyphenyl)-5<I>a</I>,6,8<I>a</I>,9-tetrahydro-5<I>H</I>-[2]benzofuro[5,6-f][1,3]benzodioxol-8-one

> <PUBCHEM_IUPAC_NAME>
(5R,5aR,8aS,9R)-5-hydroxy-9-(3,4,5-trimethoxyphenyl)-5a,6,8a,9-tetrahydro-5H-[2]benzofuro[5,6-f][1,3]benzodioxol-8-one

> <PUBCHEM_IUPAC_SYSTEMATIC_NAME>
(5R,5aR,8aS,9R)-5-oxidanyl-9-(3,4,5-trimethoxyphenyl)-5a,6,8a,9-tetrahydro-5H-[2]benzofuro[5,6-f][1,3]benzodioxol-8-one

> <PUBCHEM_IUPAC_TRADITIONAL_NAME>
(5R,5aR,8aS,9R)-5-hydroxy-9-(3,4,5-trimethoxyphenyl)-5a,6,8a,9-tetrahydro-5H-isobenzofuro[5,6-f][1,3]benzodioxol-8-one

> <PUBCHEM_IUPAC_INCHI>
InChI=1S/C22H22O8/c1-25-16-4-10(5-17(26-2)21(16)27-3)18-11-6-14-15(30-9-29-14)7-12(11)20(23)13-8-28-22(24)19(13)18/h4-7,13,18-20,23H,8-9H2,1-3H3/t13-,18+,19+,20-/m0/s1

> <PUBCHEM_IUPAC_INCHIKEY>
YJGVMLPVUAXIQN-HAEOHBJNSA-N

> <PUBCHEM_XLOGP3>
2

> <PUBCHEM_EXACT_MASS>
414.13146766

> <PUBCHEM_MOLECULAR_FORMULA>
C22H22O8

> <PUBCHEM_MOLECULAR_WEIGHT>
414.4

> <PUBCHEM_OPENEYE_CAN_SMILES>
COC1=CC(=CC(=C1OC)OC)C2C3C(COC3=O)C(C4=CC5=C(C=C24)OCO5)O

> <PUBCHEM_OPENEYE_ISO_SMILES>
COC1=CC(=CC(=C1OC)OC)[C@H]2[C@H]3[C@H](COC3=O)[C@H](C4=CC5=C(C=C24)OCO5)O

> <PUBCHEM_CACTVS_TPSA>
92.7

> <PUBCHEM_MONOISOTOPIC_WEIGHT>
414.13146766

> <PUBCHEM_TOTAL_CHARGE>
0

> <PUBCHEM_HEAVY_ATOM_COUNT>
30

> <PUBCHEM_ATOM_DEF_STEREO_COUNT>
4

> <PUBCHEM_ATOM_UDEF_STEREO_COUNT>
0

> <PUBCHEM_BOND_DEF_STEREO_COUNT>
0

> <PUBCHEM_BOND_UDEF_STEREO_COUNT>
0

> <PUBCHEM_ISOTOPIC_ATOM_COUNT>
0

> <PUBCHEM_COMPONENT_COUNT>
1

> <PUBCHEM_CACTVS_TAUTO_COUNT>
-1

> <PUBCHEM_COORDINATE_TYPE>
1
5
255

> <PUBCHEM_BONDANNOTATIONS>
10  32  6
11  17  6
13  15  8
13  18  8
15  19  8
17  22  8
17  23  8
18  20  8
19  21  8
12  2  6
20  21  8
22  25  8
23  24  8
24  26  8
25  26  8
9  31  6

$$$$
9874913
  -OEChem-11282412102D

 62 65  0     0  0  0  0  0  0999 V2000
   14.9834   -2.0646    0.0000 O   0  0  0  0  0  0  0  0  0  0  0  0
    2.8660    1.0099    0.0000 O   0  0  0  0  0  0  0  0  0  0  0  0
    4.5981    0.0099    0.0000 O   0  0  0  0  0  0  0  0  0  0  0  0
   11.5426   -0.0247    0.0000 N   0  0  0  0  0  0  0  0  0  0  0  0
   12.4603    1.4891    0.0000 N   0  0  0  0  0  0  0  0  0  0  0  0
   11.5542    3.0445    0.0000 N   0  0  0  0  0  0  0  0  0  0  0  0
    5.4641    1.5099    0.0000 N   0  0  0  0  0  0  0  0  0  0  0  0
   16.7384   -0.0848    0.0000 N   0  0  0  0  0  0  0  0  0  0  0  0
   10.6603    1.5099    0.0000 C   0  0  0  0  0  0  0  0  0  0  0  0
   11.5542    0.9752    0.0000 C   0  0  0  0  0  0  0  0  0  0  0  0
   12.4028   -0.5347    0.0000 C   0  0  0  0  0  0  0  0  0  0  0  0
   10.6603    2.5099    0.0000 C   0  0  0  0  0  0  0  0  0  0  0  0
    9.7942    1.0099    0.0000 C   0  0  0  0  0  0  0  0  0  0  0  0
    8.9282    1.5099    0.0000 C   0  0  0  0  0  0  0  0  0  0  0  0
   13.2514   -2.0446    0.0000 C   0  0  0  0  0  0  0  0  0  0  0  0
   12.3913   -1.5346    0.0000 C   0  0  0  0  0  0  0  0  0  0  0  0
   14.1232   -1.5547    0.0000 C   0  0  0  0  0  0  0  0  0  0  0  0
    9.7942    3.0099    0.0000 C   0  0  0  0  0  0  0  0  0  0  0  0
   13.2746   -0.0447    0.0000 C   0  0  0  0  0  0  0  0  0  0  0  0
    8.9282    2.5099    0.0000 C   0  0  0  0  0  0  0  0  0  0  0  0
   14.1348   -0.5547    0.0000 C   0  0  0  0  0  0  0  0  0  0  0  0
    8.0622    1.0099    0.0000 C   0  0  0  0  0  0  0  0  0  0  0  0
   13.2399   -3.0445    0.0000 C   0  0  0  0  0  0  0  0  0  0  0  0
   12.4603    2.5307    0.0000 C   0  0  0  0  0  0  0  0  0  0  0  0
    7.1962    1.5099    0.0000 C   0  0  0  0  0  0  0  0  0  0  0  0
    6.3301    1.0099    0.0000 C   0  0  0  0  0  0  0  0  0  0  0  0
   15.8551   -1.5747    0.0000 C   0  0  0  0  0  0  0  0  0  0  0  0
   16.7153   -2.0847    0.0000 C   0  0  0  0  0  0  0  0  0  0  0  0
   15.8667   -0.5748    0.0000 C   0  0  0  0  0  0  0  0  0  0  0  0
   17.5871   -1.5947    0.0000 C   0  0  0  0  0  0  0  0  0  0  0  0
   17.5986   -0.5948    0.0000 C   0  0  0  0  0  0  0  0  0  0  0  0
    4.5981    1.0099    0.0000 C   0  0  0  0  0  0  0  0  0  0  0  0
    3.7320    1.5099    0.0000 C   0  0  0  0  0  0  0  0  0  0  0  0
   18.4704   -0.1048    0.0000 C   0  0  0  0  0  0  0  0  0  0  0  0
    2.0000    1.5099    0.0000 C   0  0  0  0  0  0  0  0  0  0  0  0
    9.7942    0.3899    0.0000 H   0  0  0  0  0  0  0  0  0  0  0  0
   11.0021   -0.3285    0.0000 H   0  0  0  0  0  0  0  0  0  0  0  0
   11.8508   -1.8384    0.0000 H   0  0  0  0  0  0  0  0  0  0  0  0
    9.7942    3.6299    0.0000 H   0  0  0  0  0  0  0  0  0  0  0  0
   13.2817    0.5752    0.0000 H   0  0  0  0  0  0  0  0  0  0  0  0
    8.3913    2.8199    0.0000 H   0  0  0  0  0  0  0  0  0  0  0  0
   14.6752   -0.2510    0.0000 H   0  0  0  0  0  0  0  0  0  0  0  0
    8.0622    0.3899    0.0000 H   0  0  0  0  0  0  0  0  0  0  0  0
   12.6199   -3.0374    0.0000 H   0  0  0  0  0  0  0  0  0  0  0  0
   13.2327   -3.6645    0.0000 H   0  0  0  0  0  0  0  0  0  0  0  0
   13.8598   -3.0517    0.0000 H   0  0  0  0  0  0  0  0  0  0  0  0
   12.9960    2.8428    0.0000 H   0  0  0  0  0  0  0  0  0  0  0  0
    7.1962    2.1299    0.0000 H   0  0  0  0  0  0  0  0  0  0  0  0
    5.9316    0.5349    0.0000 H   0  0  0  0  0  0  0  0  0  0  0  0
    6.7287    0.5349    0.0000 H   0  0  0  0  0  0  0  0  0  0  0  0
    5.4641    2.1299    0.0000 H   0  0  0  0  0  0  0  0  0  0  0  0
   16.7081   -2.7046    0.0000 H   0  0  0  0  0  0  0  0  0  0  0  0
   15.3334   -0.2586    0.0000 H   0  0  0  0  0  0  0  0  0  0  0  0
   18.1204   -1.9109    0.0000 H   0  0  0  0  0  0  0  0  0  0  0  0
    4.1306    1.9848    0.0000 H   0  0  0  0  0  0  0  0  0  0  0  0
    3.3335    1.9848    0.0000 H   0  0  0  0  0  0  0  0  0  0  0  0
   18.7741   -0.6453    0.0000 H   0  0  0  0  0  0  0  0  0  0  0  0
   19.0109    0.1989    0.0000 H   0  0  0  0  0  0  0  0  0  0  0  0
   18.1666    0.4357    0.0000 H   0  0  0  0  0  0  0  0  0  0  0  0
    2.3100    2.0468    0.0000 H   0  0  0  0  0  0  0  0  0  0  0  0
    1.4631    1.8199    0.0000 H   0  0  0  0  0  0  0  0  0  0  0  0
    1.6900    0.9729    0.0000 H   0  0  0  0  0  0  0  0  0  0  0  0
  1 17  1  0  0  0  0
  1 27  1  0  0  0  0
  2 33  1  0  0  0  0
  2 35  1  0  0  0  0
  3 32  2  0  0  0  0
  4 10  1  0  0  0  0
  4 11  1  0  0  0  0
  4 37  1  0  0  0  0
  5 10  2  0  0  0  0
  5 24  1  0  0  0  0
  6 12  1  0  0  0  0
  6 24  2  0  0  0  0
  7 26  1  0  0  0  0
  7 32  1  0  0  0  0
  7 51  1  0  0  0  0
  8 29  1  0  0  0  0
  8 31  2  0  0  0  0
  9 10  1  0  0  0  0
  9 12  2  0  0  0  0
  9 13  1  0  0  0  0
 11 16  2  0  0  0  0
 11 19  1  0  0  0  0
 12 18  1  0  0  0  0
 13 14  2  0  0  0  0
 13 36  1  0  0  0  0
 14 20  1  0  0  0  0
 14 22  1  0  0  0  0
 15 16  1  0  0  0  0
 15 17  2  0  0  0  0
 15 23  1  0  0  0  0
 16 38  1  0  0  0  0
 17 21  1  0  0  0  0
 18 20  2  0  0  0  0
 18 39  1  0  0  0  0
 19 21  2  0  0  0  0
 19 40  1  0  0  0  0
 20 41  1  0  0  0  0
 21 42  1  0  0  0  0
 22 25  2  0  0  0  0
 22 43  1  0  0  0  0
 23 44  1  0  0  0  0
 23 45  1  0  0  0  0
 23 46  1  0  0  0  0
 24 47  1  0  0  0  0
 25 26  1  0  0  0  0
 25 48  1  0  0  0  0
 26 49  1  0  0  0  0
 26 50  1  0  0  0  0
 27 28  1  0  0  0  0
 27 29  2  0  0  0  0
 28 30  2  0  0  0  0
 28 52  1  0  0  0  0
 29 53  1  0  0  0  0
 30 31  1  0  0  0  0
 30 54  1  0  0  0  0
 31 34  1  0  0  0  0
 32 33  1  0  0  0  0
 33 55  1  0  0  0  0
 33 56  1  0  0  0  0
 34 57  1  0  0  0  0
 34 58  1  0  0  0  0
 34 59  1  0  0  0  0
 35 60  1  0  0  0  0
 35 61  1  0  0  0  0
 35 62  1  0  0  0  0
M  END
> <PUBCHEM_COMPOUND_CID>
9874913

> <PUBCHEM_COMPOUND_CANONICALIZED>
1

> <PUBCHEM_CACTVS_COMPLEXITY>
692

> <PUBCHEM_CACTVS_HBOND_ACCEPTOR>
7

> <PUBCHEM_CACTVS_HBOND_DONOR>
2

> <PUBCHEM_CACTVS_ROTATABLE_BOND>
9

> <PUBCHEM_CACTVS_SUBSKEYS>
AAADceB7sAAAAAAAAAAAAAAAAAAAAAAAAAA8eIEAAAAAAACx/AAAHgAQAAAADAzhngY/9vbIFACoAzd3dAaCiCkxYqAJ2KB/bJiOLuLE+d+HPCjs1hPY6CewwGAOCEACQAAKAAAQgASAABQAAAAAAAAAAA==

> <PUBCHEM_IUPAC_OPENEYE_NAME>
2-methoxy-N-[(E)-3-[4-[3-methyl-4-[(6-methyl-3-pyridyl)oxy]anilino]quinazolin-6-yl]allyl]acetamide

> <PUBCHEM_IUPAC_CAS_NAME>
2-methoxy-N-[(E)-3-[4-[3-methyl-4-[(6-methyl-3-pyridinyl)oxy]anilino]-6-quinazolinyl]prop-2-enyl]acetamide

> <PUBCHEM_IUPAC_NAME_MARKUP>
2-methoxy-<I>N</I>-[(<I>E</I>)-3-[4-[3-methyl-4-(6-methylpyridin-3-yl)oxyanilino]quinazolin-6-yl]prop-2-enyl]acetamide

> <PUBCHEM_IUPAC_NAME>
2-methoxy-N-[(E)-3-[4-[3-methyl-4-(6-methylpyridin-3-yl)oxyanilino]quinazolin-6-yl]prop-2-enyl]acetamide

> <PUBCHEM_IUPAC_SYSTEMATIC_NAME>
2-methoxy-N-[(E)-3-[4-[[3-methyl-4-(6-methylpyridin-3-yl)oxy-phenyl]amino]quinazolin-6-yl]prop-2-enyl]ethanamide

> <PUBCHEM_IUPAC_TRADITIONAL_NAME>
2-methoxy-N-[(E)-3-[4-[3-methyl-4-[(6-methyl-3-pyridyl)oxy]anilino]quinazolin-6-yl]allyl]acetamide

> <PUBCHEM_IUPAC_INCHI>
InChI=1S/C27H27N5O3/c1-18-13-21(8-11-25(18)35-22-9-6-19(2)29-15-22)32-27-23-14-20(7-10-24(23)30-17-31-27)5-4-12-28-26(33)16-34-3/h4-11,13-15,17H,12,16H2,1-3H3,(H,28,33)(H,30,31,32)/b5-4+

> <PUBCHEM_IUPAC_INCHIKEY>
LLVZBTWPGQVVLW-SNAWJCMRSA-N

> <PUBCHEM_XLOGP3_AA>
4.3

> <PUBCHEM_EXACT_MASS>
469.21138974

> <PUBCHEM_MOLECULAR_FORMULA>
C27H27N5O3

> <PUBCHEM_MOLECULAR_WEIGHT>
469.5

> <PUBCHEM_OPENEYE_CAN_SMILES>
CC1=NC=C(C=C1)OC2=C(C=C(C=C2)NC3=NC=NC4=C3C=C(C=C4)C=CCNC(=O)COC)C

> <PUBCHEM_OPENEYE_ISO_SMILES>
CC1=NC=C(C=C1)OC2=C(C=C(C=C2)NC3=NC=NC4=C3C=C(C=C4)/C=C/CNC(=O)COC)C

> <PUBCHEM_CACTVS_TPSA>
98.3

> <PUBCHEM_MONOISOTOPIC_WEIGHT>
469.21138974

> <PUBCHEM_TOTAL_CHARGE>
0

> <PUBCHEM_HEAVY_ATOM_COUNT>
35

> <PUBCHEM_ATOM_DEF_STEREO_COUNT>
0

> <PUBCHEM_ATOM_UDEF_STEREO_COUNT>
0

> <PUBCHEM_BOND_DEF_STEREO_COUNT>
1

> <PUBCHEM_BOND_UDEF_STEREO_COUNT>
0

> <PUBCHEM_ISOTOPIC_ATOM_COUNT>
0

> <PUBCHEM_COMPONENT_COUNT>
1

> <PUBCHEM_CACTVS_TAUTO_COUNT>
36

> <PUBCHEM_COORDINATE_TYPE>
1
5
255

> <PUBCHEM_BONDANNOTATIONS>
11  16  8
11  19  8
12  18  8
13  14  8
14  20  8
15  16  8
15  17  8
17  21  8
18  20  8
19  21  8
27  28  8
27  29  8
28  30  8
30  31  8
5  10  8
5  24  8
6  12  8
6  24  8
8  29  8
8  31  8
9  10  8
9  12  8
9  13  8

$$$$
11282283
  -OEChem-11282412102D

 53 58  0     0  0  0  0  0  0999 V2000
    6.8661    1.9125    0.0000 S   0  0  0  0  0  0  0  0  0  0  0  0
    4.5274   -2.2856    0.0000 O   0  0  0  0  0  0  0  0  0  0  0  0
   11.5561    4.6092    0.0000 O   0  0  0  0  0  0  0  0  0  0  0  0
   12.6468    3.4257    0.0000 O   0  0  0  0  0  0  0  0  0  0  0  0
    6.6498   -1.6866    0.0000 N   0  0  0  0  0  0  0  0  0  0  0  0
    7.2458    0.2225    0.0000 N   0  0  0  0  0  0  0  0  0  0  0  0
    8.5195    1.3963    0.0000 N   0  0  0  0  0  0  0  0  0  0  0  0
    7.0547   -3.4098    0.0000 N   0  0  0  0  0  0  0  0  0  0  0  0
    5.7123   -4.6092    0.0000 N   0  0  0  0  0  0  0  0  0  0  0  0
    5.9721   -0.9512    0.0000 C   0  0  0  0  0  0  0  0  0  0  0  0
    7.6255   -1.4674    0.0000 C   0  0  0  0  0  0  0  0  0  0  0  0
    6.2701    0.0033    0.0000 C   0  0  0  0  0  0  0  0  0  0  0  0
    7.9235   -0.5128    0.0000 C   0  0  0  0  0  0  0  0  0  0  0  0
    6.3518   -2.6412    0.0000 C   0  0  0  0  0  0  0  0  0  0  0  0
    7.5438    1.1771    0.0000 C   0  0  0  0  0  0  0  0  0  0  0  0
    5.3364   -2.8734    0.0000 C   0  0  0  0  0  0  0  0  0  0  0  0
    5.0274   -3.8245    0.0000 C   0  0  0  0  0  0  0  0  0  0  0  0
    4.0274   -3.8245    0.0000 C   0  0  0  0  0  0  0  0  0  0  0  0
    3.7183   -2.8734    0.0000 C   0  0  0  0  0  0  0  0  0  0  0  0
    8.8175    2.3509    0.0000 C   0  0  0  0  0  0  0  0  0  0  0  0
    9.7931    2.5701    0.0000 C   0  0  0  0  0  0  0  0  0  0  0  0
    6.7328   -4.4005    0.0000 C   0  0  0  0  0  0  0  0  0  0  0  0
    3.3424   -4.6092    0.0000 C   0  0  0  0  0  0  0  0  0  0  0  0
    2.7029   -2.6412    0.0000 C   0  0  0  0  0  0  0  0  0  0  0  0
   10.0911    3.5247    0.0000 C   0  0  0  0  0  0  0  0  0  0  0  0
   10.4708    1.8347    0.0000 C   0  0  0  0  0  0  0  0  0  0  0  0
   11.0668    3.7439    0.0000 C   0  0  0  0  0  0  0  0  0  0  0  0
    2.3219   -4.4005    0.0000 C   0  0  0  0  0  0  0  0  0  0  0  0
    2.0000   -3.4098    0.0000 C   0  0  0  0  0  0  0  0  0  0  0  0
   11.7445    3.0085    0.0000 C   0  0  0  0  0  0  0  0  0  0  0  0
   11.4465    2.0540    0.0000 C   0  0  0  0  0  0  0  0  0  0  0  0
   12.5306    4.4129    0.0000 C   0  0  0  0  0  0  0  0  0  0  0  0
    5.4214   -0.6665    0.0000 H   0  0  0  0  0  0  0  0  0  0  0  0
    5.5961   -1.4442    0.0000 H   0  0  0  0  0  0  0  0  0  0  0  0
    7.6543   -2.0867    0.0000 H   0  0  0  0  0  0  0  0  0  0  0  0
    8.2404   -1.5466    0.0000 H   0  0  0  0  0  0  0  0  0  0  0  0
    6.2413    0.6227    0.0000 H   0  0  0  0  0  0  0  0  0  0  0  0
    5.6552    0.0825    0.0000 H   0  0  0  0  0  0  0  0  0  0  0  0
    8.4742   -0.7975    0.0000 H   0  0  0  0  0  0  0  0  0  0  0  0
    8.2995   -0.0199    0.0000 H   0  0  0  0  0  0  0  0  0  0  0  0
    8.9396    0.9404    0.0000 H   0  0  0  0  0  0  0  0  0  0  0  0
    8.7887    2.9702    0.0000 H   0  0  0  0  0  0  0  0  0  0  0  0
    8.2025    2.4301    0.0000 H   0  0  0  0  0  0  0  0  0  0  0  0
    7.1459   -4.8628    0.0000 H   0  0  0  0  0  0  0  0  0  0  0  0
    3.5408   -5.1966    0.0000 H   0  0  0  0  0  0  0  0  0  0  0  0
    2.5182   -2.0493    0.0000 H   0  0  0  0  0  0  0  0  0  0  0  0
    9.6710    3.9806    0.0000 H   0  0  0  0  0  0  0  0  0  0  0  0
   10.2861    1.2429    0.0000 H   0  0  0  0  0  0  0  0  0  0  0  0
    1.9088   -4.8628    0.0000 H   0  0  0  0  0  0  0  0  0  0  0  0
    1.3940   -3.2786    0.0000 H   0  0  0  0  0  0  0  0  0  0  0  0
   11.8667    1.5980    0.0000 H   0  0  0  0  0  0  0  0  0  0  0  0
   13.1506    4.4203    0.0000 H   0  0  0  0  0  0  0  0  0  0  0  0
   12.5885    5.0302    0.0000 H   0  0  0  0  0  0  0  0  0  0  0  0
  1 15  2  0  0  0  0
  2 16  1  0  0  0  0
  2 19  1  0  0  0  0
  3 27  1  0  0  0  0
  3 32  1  0  0  0  0
  4 30  1  0  0  0  0
  4 32  1  0  0  0  0
  5 10  1  0  0  0  0
  5 11  1  0  0  0  0
  5 14  1  0  0  0  0
  6 12  1  0  0  0  0
  6 13  1  0  0  0  0
  6 15  1  0  0  0  0
  7 15  1  0  0  0  0
  7 20  1  0  0  0  0
  7 41  1  0  0  0  0
  8 14  2  0  0  0  0
  8 22  1  0  0  0  0
  9 17  1  0  0  0  0
  9 22  2  0  0  0  0
 10 12  1  0  0  0  0
 10 33  1  0  0  0  0
 10 34  1  0  0  0  0
 11 13  1  0  0  0  0
 11 35  1  0  0  0  0
 11 36  1  0  0  0  0
 12 37  1  0  0  0  0
 12 38  1  0  0  0  0
 13 39  1  0  0  0  0
 13 40  1  0  0  0  0
 14 16  1  0  0  0  0
 16 17  2  0  0  0  0
 17 18  1  0  0  0  0
 18 19  1  0  0  0  0
 18 23  2  0  0  0  0
 19 24  2  0  0  0  0
 20 21  1  0  0  0  0
 20 42  1  0  0  0  0
 20 43  1  0  0  0  0
 21 25  2  0  0  0  0
 21 26  1  0  0  0  0
 22 44  1  0  0  0  0
 23 28  1  0  0  0  0
 23 45  1  0  0  0  0
 24 29  1  0  0  0  0
 24 46  1  0  0  0  0
 25 27  1  0  0  0  0
 25 47  1  0  0  0  0
 26 31  2  0  0  0  0
 26 48  1  0  0  0  0
 27 30  2  0  0  0  0
 28 29  2  0  0  0  0
 28 49  1  0  0  0  0
 29 50  1  0  0  0  0
 30 31  1  0  0  0  0
 31 51  1  0  0  0  0
 32 52  1  0  0  0  0
 32 53  1  0  0  0  0
M  END
> <PUBCHEM_COMPOUND_CID>
11282283

> <PUBCHEM_COMPOUND_CANONICALIZED>
1

> <PUBCHEM_CACTVS_COMPLEXITY>
678

> <PUBCHEM_CACTVS_HBOND_ACCEPTOR>
7

> <PUBCHEM_CACTVS_HBOND_DONOR>
1

> <PUBCHEM_CACTVS_ROTATABLE_BOND>
3

> <PUBCHEM_CACTVS_SUBSKEYS>
AAADceB7sABAAAAAAAAAAAAAAAAAASJAAAA8eIEAAAAAAFgB/gAAHgQQAAAADAzBngc1/vfIFECsA6ZzZASCiCk3YKkJ2KGvzNifbrrE/fu3ParuwBve6ee42bKOIAABAAAIQABAAAIAABCAAAAAAAAAAA==

> <PUBCHEM_IUPAC_OPENEYE_NAME>
N-(1,3-benzodioxol-5-ylmethyl)-4-(benzofuro[3,2-d]pyrimidin-4-yl)piperazine-1-carbothioamide

> <PUBCHEM_IUPAC_CAS_NAME>
N-(1,3-benzodioxol-5-ylmethyl)-4-(4-benzofuro[3,2-d]pyrimidinyl)-1-piperazinecarbothioamide

> <PUBCHEM_IUPAC_NAME_MARKUP>
<I>N</I>-(1,3-benzodioxol-5-ylmethyl)-4-([1]benzofuro[3,2-d]pyrimidin-4-yl)piperazine-1-carbothioamide

> <PUBCHEM_IUPAC_NAME>
N-(1,3-benzodioxol-5-ylmethyl)-4-([1]benzofuro[3,2-d]pyrimidin-4-yl)piperazine-1-carbothioamide

> <PUBCHEM_IUPAC_SYSTEMATIC_NAME>
N-(1,3-benzodioxol-5-ylmethyl)-4-([1]benzofuro[3,2-d]pyrimidin-4-yl)piperazine-1-carbothioamide

> <PUBCHEM_IUPAC_TRADITIONAL_NAME>
4-(benzofuro[3,2-d]pyrimidin-4-yl)-N-piperonyl-piperazine-1-carbothioamide

> <PUBCHEM_IUPAC_INCHI>
InChI=1S/C23H21N5O3S/c32-23(24-12-15-5-6-18-19(11-15)30-14-29-18)28-9-7-27(8-10-28)22-21-20(25-13-26-22)16-3-1-2-4-17(16)31-21/h1-6,11,13H,7-10,12,14H2,(H,24,32)

> <PUBCHEM_IUPAC_INCHIKEY>
FOFDIMHVKGYHRU-UHFFFAOYSA-N

> <PUBCHEM_XLOGP3_AA>
3.5

> <PUBCHEM_EXACT_MASS>
447.13651072

> <PUBCHEM_MOLECULAR_FORMULA>
C23H21N5O3S

> <PUBCHEM_MOLECULAR_WEIGHT>
447.5

> <PUBCHEM_OPENEYE_CAN_SMILES>
C1CN(CCN1C2=NC=NC3=C2OC4=CC=CC=C43)C(=S)NCC5=CC6=C(C=C5)OCO6

> <PUBCHEM_OPENEYE_ISO_SMILES>
C1CN(CCN1C2=NC=NC3=C2OC4=CC=CC=C43)C(=S)NCC5=CC6=C(C=C5)OCO6

> <PUBCHEM_CACTVS_TPSA>
108

> <PUBCHEM_MONOISOTOPIC_WEIGHT>
447.13651072

> <PUBCHEM_TOTAL_CHARGE>
0

> <PUBCHEM_HEAVY_ATOM_COUNT>
32

> <PUBCHEM_ATOM_DEF_STEREO_COUNT>
0

> <PUBCHEM_ATOM_UDEF_STEREO_COUNT>
0

> <PUBCHEM_BOND_DEF_STEREO_COUNT>
0

> <PUBCHEM_BOND_UDEF_STEREO_COUNT>
0

> <PUBCHEM_ISOTOPIC_ATOM_COUNT>
0

> <PUBCHEM_COMPONENT_COUNT>
1

> <PUBCHEM_CACTVS_TAUTO_COUNT>
-1

> <PUBCHEM_COORDINATE_TYPE>
1
5
255

> <PUBCHEM_BONDANNOTATIONS>
14  16  8
16  17  8
17  18  8
18  19  8
18  23  8
19  24  8
2  16  8
2  19  8
21  25  8
21  26  8
23  28  8
24  29  8
25  27  8
26  31  8
27  30  8
28  29  8
30  31  8
8  14  8
8  22  8
9  17  8
9  22  8

$$$$
23635314
  -OEChem-11282412102D

 61 64  0     0  0  0  0  0  0999 V2000
   17.5885    1.0000    0.0000 O   0  0  0  0  0  0  0  0  0  0  0  0
   13.2583    2.5000    0.0000 O   0  0  0  0  0  0  0  0  0  0  0  0
    6.3301    0.5000    0.0000 O   0  0  0  0  0  0  0  0  0  0  0  0
   15.8564    2.0000    0.0000 N   0  0  0  0  0  0  0  0  0  0  0  0
    5.4641   -1.0000    0.0000 N   0  0  0  0  0  0  0  0  0  0  0  0
    8.9282   -1.0000    0.0000 N   0  0  0  0  0  0  0  0  0  0  0  0
   16.7224    2.5000    0.0000 C   0  0  0  0  0  0  0  0  0  0  0  0
   15.8564    1.0000    0.0000 C   0  0  0  0  0  0  0  0  0  0  0  0
   14.9904    2.5000    0.0000 C   0  0  0  0  0  0  0  0  0  0  0  0
   17.5885    2.0000    0.0000 C   0  0  0  0  0  0  0  0  0  0  0  0
   16.7224    0.5000    0.0000 C   0  0  0  0  0  0  0  0  0  0  0  0
   14.1244    2.0000    0.0000 C   0  0  0  0  0  0  0  0  0  0  0  0
   12.3923    2.0000    0.0000 C   0  0  0  0  0  0  0  0  0  0  0  0
   10.6603    1.0000    0.0000 C   0  0  0  0  0  0  0  0  0  0  0  0
   12.3923    1.0000    0.0000 C   0  0  0  0  0  0  0  0  0  0  0  0
   11.5263    2.5000    0.0000 C   0  0  0  0  0  0  0  0  0  0  0  0
    9.7942    0.5000    0.0000 C   0  0  0  0  0  0  0  0  0  0  0  0
   11.5263    0.5000    0.0000 C   0  0  0  0  0  0  0  0  0  0  0  0
   10.6603    2.0000    0.0000 C   0  0  0  0  0  0  0  0  0  0  0  0
    8.0622   -0.5000    0.0000 C   0  0  0  0  0  0  0  0  0  0  0  0
    7.1962   -1.0000    0.0000 C   0  0  0  0  0  0  0  0  0  0  0  0
    8.9282    1.0000    0.0000 C   0  0  0  0  0  0  0  0  0  0  0  0
    9.7942   -0.5000    0.0000 C   0  0  0  0  0  0  0  0  0  0  0  0
    8.0622    0.5000    0.0000 C   0  0  0  0  0  0  0  0  0  0  0  0
    4.5981   -0.5000    0.0000 C   0  0  0  0  0  0  0  0  0  0  0  0
    6.3301   -0.5000    0.0000 C   0  0  0  0  0  0  0  0  0  0  0  0
    3.7320   -1.0000    0.0000 C   0  0  0  0  0  0  0  0  0  0  0  0
    2.8660   -0.5000    0.0000 C   0  0  0  0  0  0  0  0  0  0  0  0
    3.7320   -2.0000    0.0000 C   0  0  0  0  0  0  0  0  0  0  0  0
    2.0000   -1.0000    0.0000 C   0  0  0  0  0  0  0  0  0  0  0  0
    2.8660   -2.5000    0.0000 C   0  0  0  0  0  0  0  0  0  0  0  0
    2.0000   -2.0000    0.0000 C   0  0  0  0  0  0  0  0  0  0  0  0
   17.1210    2.9750    0.0000 H   0  0  0  0  0  0  0  0  0  0  0  0
   16.3239    2.9750    0.0000 H   0  0  0  0  0  0  0  0  0  0  0  0
   15.2458    1.1077    0.0000 H   0  0  0  0  0  0  0  0  0  0  0  0
   15.6444    0.4174    0.0000 H   0  0  0  0  0  0  0  0  0  0  0  0
   15.3889    2.9750    0.0000 H   0  0  0  0  0  0  0  0  0  0  0  0
   14.5919    2.9750    0.0000 H   0  0  0  0  0  0  0  0  0  0  0  0
   18.1990    1.8923    0.0000 H   0  0  0  0  0  0  0  0  0  0  0  0
   17.8005    2.5826    0.0000 H   0  0  0  0  0  0  0  0  0  0  0  0
   16.3239    0.0251    0.0000 H   0  0  0  0  0  0  0  0  0  0  0  0
   17.1210    0.0251    0.0000 H   0  0  0  0  0  0  0  0  0  0  0  0
   13.7258    1.5250    0.0000 H   0  0  0  0  0  0  0  0  0  0  0  0
   14.5229    1.5250    0.0000 H   0  0  0  0  0  0  0  0  0  0  0  0
   12.9292    0.6900    0.0000 H   0  0  0  0  0  0  0  0  0  0  0  0
   11.5263    3.1200    0.0000 H   0  0  0  0  0  0  0  0  0  0  0  0
   11.5263   -0.1200    0.0000 H   0  0  0  0  0  0  0  0  0  0  0  0
   10.1233    2.3100    0.0000 H   0  0  0  0  0  0  0  0  0  0  0  0
    6.7976   -1.4750    0.0000 H   0  0  0  0  0  0  0  0  0  0  0  0
    7.5947   -1.4750    0.0000 H   0  0  0  0  0  0  0  0  0  0  0  0
    8.9282    1.6200    0.0000 H   0  0  0  0  0  0  0  0  0  0  0  0
   10.3312   -0.8100    0.0000 H   0  0  0  0  0  0  0  0  0  0  0  0
    7.5252    0.8100    0.0000 H   0  0  0  0  0  0  0  0  0  0  0  0
    4.9966   -0.0251    0.0000 H   0  0  0  0  0  0  0  0  0  0  0  0
    4.1996   -0.0251    0.0000 H   0  0  0  0  0  0  0  0  0  0  0  0
    5.4641   -1.6200    0.0000 H   0  0  0  0  0  0  0  0  0  0  0  0
    2.8660    0.1200    0.0000 H   0  0  0  0  0  0  0  0  0  0  0  0
    4.2690   -2.3100    0.0000 H   0  0  0  0  0  0  0  0  0  0  0  0
    1.4631   -0.6900    0.0000 H   0  0  0  0  0  0  0  0  0  0  0  0
    2.8660   -3.1200    0.0000 H   0  0  0  0  0  0  0  0  0  0  0  0
    1.4631   -2.3100    0.0000 H   0  0  0  0  0  0  0  0  0  0  0  0
  1 10  1  0  0  0  0
  1 11  1  0  0  0  0
  2 12  1  0  0  0  0
  2 13  1  0  0  0  0
  3 26  2  0  0  0  0
  4  7  1  0  0  0  0
  4  8  1  0  0  0  0
  4  9  1  0  0  0  0
  5 25  1  0  0  0  0
  5 26  1  0  0  0  0
  5 56  1  0  0  0  0
  6 20  2  0  0  0  0
  6 23  1  0  0  0  0
  7 10  1  0  0  0  0
  7 33  1  0  0  0  0
  7 34  1  0  0  0  0
  8 11  1  0  0  0  0
  8 35  1  0  0  0  0
  8 36  1  0  0  0  0
  9 12  1  0  0  0  0
  9 37  1  0  0  0  0
  9 38  1  0  0  0  0
 10 39  1  0  0  0  0
 10 40  1  0  0  0  0
 11 41  1  0  0  0  0
 11 42  1  0  0  0  0
 12 43  1  0  0  0  0
 12 44  1  0  0  0  0
 13 15  2  0  0  0  0
 13 16  1  0  0  0  0
 14 17  1  0  0  0  0
 14 18  2  0  0  0  0
 14 19  1  0  0  0  0
 15 18  1  0  0  0  0
 15 45  1  0  0  0  0
 16 19  2  0  0  0  0
 16 46  1  0  0  0  0
 17 22  1  0  0  0  0
 17 23  2  0  0  0  0
 18 47  1  0  0  0  0
 19 48  1  0  0  0  0
 20 21  1  0  0  0  0
 20 24  1  0  0  0  0
 21 26  1  0  0  0  0
 21 49  1  0  0  0  0
 21 50  1  0  0  0  0
 22 24  2  0  0  0  0
 22 51  1  0  0  0  0
 23 52  1  0  0  0  0
 24 53  1  0  0  0  0
 25 27  1  0  0  0  0
 25 54  1  0  0  0  0
 25 55  1  0  0  0  0
 27 28  2  0  0  0  0
 27 29  1  0  0  0  0
 28 30  1  0  0  0  0
 28 57  1  0  0  0  0
 29 31  2  0  0  0  0
 29 58  1  0  0  0  0
 30 32  2  0  0  0  0
 30 59  1  0  0  0  0
 31 32  1  0  0  0  0
 31 60  1  0  0  0  0
 32 61  1  0  0  0  0
M  END
> <PUBCHEM_COMPOUND_CID>
23635314

> <PUBCHEM_COMPOUND_CANONICALIZED>
1

> <PUBCHEM_CACTVS_COMPLEXITY>
540

> <PUBCHEM_CACTVS_HBOND_ACCEPTOR>
5

> <PUBCHEM_CACTVS_HBOND_DONOR>
1

> <PUBCHEM_CACTVS_ROTATABLE_BOND>
9

> <PUBCHEM_CACTVS_SUBSKEYS>
AAADceB7MAAAAAAAAAAAAAAAAAAAAAAAAAA8eIEAAAAAAAAB0AAAHgAQAAAADAzhngY8hpPIFACoAzV3VACCiCAxIiAI2KE+bJgOJvrE9ZuHOCjk1hHY6AeYyPCOoAAAAAAAAABAAAAAAAAAAAAAAAAAAA==

> <PUBCHEM_IUPAC_OPENEYE_NAME>
N-benzyl-2-[5-[4-(2-morpholinoethoxy)phenyl]-2-pyridyl]acetamide

> <PUBCHEM_IUPAC_CAS_NAME>
2-[5-[4-[2-(4-morpholinyl)ethoxy]phenyl]-2-pyridinyl]-N-(phenylmethyl)acetamide

> <PUBCHEM_IUPAC_NAME_MARKUP>
<I>N</I>-benzyl-2-[5-[4-(2-morpholin-4-ylethoxy)phenyl]pyridin-2-yl]acetamide

> <PUBCHEM_IUPAC_NAME>
N-benzyl-2-[5-[4-(2-morpholin-4-ylethoxy)phenyl]pyridin-2-yl]acetamide

> <PUBCHEM_IUPAC_SYSTEMATIC_NAME>
2-[5-[4-(2-morpholin-4-ylethoxy)phenyl]pyridin-2-yl]-N-(phenylmethyl)ethanamide

> <PUBCHEM_IUPAC_TRADITIONAL_NAME>
N-benzyl-2-[5-[4-(2-morpholinoethoxy)phenyl]-2-pyridyl]acetamide

> <PUBCHEM_IUPAC_INCHI>
InChI=1S/C26H29N3O3/c30-26(28-19-21-4-2-1-3-5-21)18-24-9-6-23(20-27-24)22-7-10-25(11-8-22)32-17-14-29-12-15-31-16-13-29/h1-11,20H,12-19H2,(H,28,30)

> <PUBCHEM_IUPAC_INCHIKEY>
HUNGUWOZPQBXGX-UHFFFAOYSA-N

> <PUBCHEM_XLOGP3_AA>
2.9

> <PUBCHEM_EXACT_MASS>
431.22089180

> <PUBCHEM_MOLECULAR_FORMULA>
C26H29N3O3

> <PUBCHEM_MOLECULAR_WEIGHT>
431.5

> <PUBCHEM_OPENEYE_CAN_SMILES>
C1COCCN1CCOC2=CC=C(C=C2)C3=CN=C(C=C3)CC(=O)NCC4=CC=CC=C4

> <PUBCHEM_OPENEYE_ISO_SMILES>
C1COCCN1CCOC2=CC=C(C=C2)C3=CN=C(C=C3)CC(=O)NCC4=CC=CC=C4

> <PUBCHEM_CACTVS_TPSA>
63.7

> <PUBCHEM_MONOISOTOPIC_WEIGHT>
431.22089180

> <PUBCHEM_TOTAL_CHARGE>
0

> <PUBCHEM_HEAVY_ATOM_COUNT>
32

> <PUBCHEM_ATOM_DEF_STEREO_COUNT>
0

> <PUBCHEM_ATOM_UDEF_STEREO_COUNT>
0

> <PUBCHEM_BOND_DEF_STEREO_COUNT>
0

> <PUBCHEM_BOND_UDEF_STEREO_COUNT>
0

> <PUBCHEM_ISOTOPIC_ATOM_COUNT>
0

> <PUBCHEM_COMPONENT_COUNT>
1

> <PUBCHEM_CACTVS_TAUTO_COUNT>
-1

> <PUBCHEM_COORDINATE_TYPE>
1
5
255

> <PUBCHEM_BONDANNOTATIONS>
13  15  8
13  16  8
14  18  8
14  19  8
15  18  8
16  19  8
17  22  8
17  23  8
20  24  8
22  24  8
27  28  8
27  29  8
28  30  8
29  31  8
30  32  8
31  32  8
6  20  8
6  23  8

$$$$
45142457
  -OEChem-11282412102D

 55 59  0     0  0  0  0  0  0999 V2000
   11.1855    0.0598    0.0000 S   0  0  0  0  0  0  0  0  0  0  0  0
   11.4766   -0.8969    0.0000 O   0  0  0  0  0  0  0  0  0  0  0  0
   10.8944    1.0165    0.0000 O   0  0  0  0  0  0  0  0  0  0  0  0
    6.8472   -0.5613    0.0000 O   0  0  0  0  0  0  0  0  0  0  0  0
   12.1422    0.3508    0.0000 N   0  0  0  0  0  0  0  0  0  0  0  0
    4.7332    2.1698    0.0000 N   0  0  0  0  0  0  0  0  0  0  0  0
    2.6830   -1.6474    0.0000 N   0  0  0  0  0  0  0  0  0  0  0  0
    2.0000   -0.9170    0.0000 N   0  0  0  0  0  0  0  0  0  0  0  0
   14.5597   -0.7241    0.0000 N   0  0  0  0  0  0  0  0  0  0  0  0
    9.4984    0.4517    0.0000 C   0  0  0  0  0  0  0  0  0  0  0  0
   10.2288   -0.2313    0.0000 C   0  0  0  0  0  0  0  0  0  0  0  0
    7.7481    0.8726    0.0000 C   0  0  0  0  0  0  0  0  0  0  0  0
    7.9707    1.8475    0.0000 C   0  0  0  0  0  0  0  0  0  0  0  0
    8.5007    0.1524    0.0000 C   0  0  0  0  0  0  0  0  0  0  0  0
    5.9462    0.8726    0.0000 C   0  0  0  0  0  0  0  0  0  0  0  0
    6.8472    0.4387    0.0000 C   0  0  0  0  0  0  0  0  0  0  0  0
    9.7302    1.4672    0.0000 C   0  0  0  0  0  0  0  0  0  0  0  0
    8.9612    2.1698    0.0000 C   0  0  0  0  0  0  0  0  0  0  0  0
    5.7237    1.8475    0.0000 C   0  0  0  0  0  0  0  0  0  0  0  0
    7.3472    2.6293    0.0000 C   0  0  0  0  0  0  0  0  0  0  0  0
    5.1936    0.1524    0.0000 C   0  0  0  0  0  0  0  0  0  0  0  0
    6.3472    2.6293    0.0000 C   0  0  0  0  0  0  0  0  0  0  0  0
    4.1959    0.4518    0.0000 C   0  0  0  0  0  0  0  0  0  0  0  0
   12.8726   -0.3322    0.0000 C   0  0  0  0  0  0  0  0  0  0  0  0
    3.4655   -0.2312    0.0000 C   0  0  0  0  0  0  0  0  0  0  0  0
    3.9642    1.4673    0.0000 C   0  0  0  0  0  0  0  0  0  0  0  0
   13.8293   -0.0411    0.0000 C   0  0  0  0  0  0  0  0  0  0  0  0
    3.5887   -1.2236    0.0000 C   0  0  0  0  0  0  0  0  0  0  0  0
    2.4836   -0.0417    0.0000 C   0  0  0  0  0  0  0  0  0  0  0  0
   14.0556    0.9330    0.0000 C   0  0  0  0  0  0  0  0  0  0  0  0
    2.4935   -2.6293    0.0000 C   0  0  0  0  0  0  0  0  0  0  0  0
   15.0123    1.2240    0.0000 C   0  0  0  0  0  0  0  0  0  0  0  0
   15.5164   -0.4330    0.0000 C   0  0  0  0  0  0  0  0  0  0  0  0
   15.7427    0.5410    0.0000 C   0  0  0  0  0  0  0  0  0  0  0  0
    9.7331   -0.6037    0.0000 H   0  0  0  0  0  0  0  0  0  0  0  0
   10.5095   -0.7841    0.0000 H   0  0  0  0  0  0  0  0  0  0  0  0
    8.3557   -0.4504    0.0000 H   0  0  0  0  0  0  0  0  0  0  0  0
   10.3219    1.6523    0.0000 H   0  0  0  0  0  0  0  0  0  0  0  0
    9.0921    2.7758    0.0000 H   0  0  0  0  0  0  0  0  0  0  0  0
    7.6162    3.1879    0.0000 H   0  0  0  0  0  0  0  0  0  0  0  0
   12.2825    0.9548    0.0000 H   0  0  0  0  0  0  0  0  0  0  0  0
    5.3386   -0.4504    0.0000 H   0  0  0  0  0  0  0  0  0  0  0  0
    6.0782    3.1879    0.0000 H   0  0  0  0  0  0  0  0  0  0  0  0
   12.3770   -0.7046    0.0000 H   0  0  0  0  0  0  0  0  0  0  0  0
   13.1533   -0.8850    0.0000 H   0  0  0  0  0  0  0  0  0  0  0  0
    3.3724    1.6523    0.0000 H   0  0  0  0  0  0  0  0  0  0  0  0
    4.1314   -1.5235    0.0000 H   0  0  0  0  0  0  0  0  0  0  0  0
    2.2208    0.5198    0.0000 H   0  0  0  0  0  0  0  0  0  0  0  0
   13.6027    1.3564    0.0000 H   0  0  0  0  0  0  0  0  0  0  0  0
    1.8847   -2.5119    0.0000 H   0  0  0  0  0  0  0  0  0  0  0  0
    2.3760   -3.2381    0.0000 H   0  0  0  0  0  0  0  0  0  0  0  0
    3.1023   -2.7468    0.0000 H   0  0  0  0  0  0  0  0  0  0  0  0
   15.1526    1.8280    0.0000 H   0  0  0  0  0  0  0  0  0  0  0  0
   15.9693   -0.8565    0.0000 H   0  0  0  0  0  0  0  0  0  0  0  0
   16.3359    0.7215    0.0000 H   0  0  0  0  0  0  0  0  0  0  0  0
  1  2  2  0  0  0  0
  1  3  2  0  0  0  0
  1  5  1  0  0  0  0
  1 11  1  0  0  0  0
  4 16  2  0  0  0  0
  5 24  1  0  0  0  0
  5 41  1  0  0  0  0
  6 19  1  0  0  0  0
  6 26  2  0  0  0  0
  7  8  1  0  0  0  0
  7 28  1  0  0  0  0
  7 31  1  0  0  0  0
  8 29  2  0  0  0  0
  9 27  1  0  0  0  0
  9 33  2  0  0  0  0
 10 11  1  0  0  0  0
 10 14  2  0  0  0  0
 10 17  1  0  0  0  0
 11 35  1  0  0  0  0
 11 36  1  0  0  0  0
 12 13  2  0  0  0  0
 12 14  1  0  0  0  0
 12 16  1  0  0  0  0
 13 18  1  0  0  0  0
 13 20  1  0  0  0  0
 14 37  1  0  0  0  0
 15 16  1  0  0  0  0
 15 19  2  0  0  0  0
 15 21  1  0  0  0  0
 17 18  2  0  0  0  0
 17 38  1  0  0  0  0
 18 39  1  0  0  0  0
 19 22  1  0  0  0  0
 20 22  2  0  0  0  0
 20 40  1  0  0  0  0
 21 23  2  0  0  0  0
 21 42  1  0  0  0  0
 22 43  1  0  0  0  0
 23 25  1  0  0  0  0
 23 26  1  0  0  0  0
 24 27  1  0  0  0  0
 24 44  1  0  0  0  0
 24 45  1  0  0  0  0
 25 28  2  0  0  0  0
 25 29  1  0  0  0  0
 26 46  1  0  0  0  0
 27 30  2  0  0  0  0
 28 47  1  0  0  0  0
 29 48  1  0  0  0  0
 30 32  1  0  0  0  0
 30 49  1  0  0  0  0
 31 50  1  0  0  0  0
 31 51  1  0  0  0  0
 31 52  1  0  0  0  0
 32 34  2  0  0  0  0
 32 53  1  0  0  0  0
 33 34  1  0  0  0  0
 33 54  1  0  0  0  0
 34 55  1  0  0  0  0
M  END
> <PUBCHEM_COMPOUND_CID>
45142457

> <PUBCHEM_COMPOUND_CANONICALIZED>
1

> <PUBCHEM_CACTVS_COMPLEXITY>
859

> <PUBCHEM_CACTVS_HBOND_ACCEPTOR>
7

> <PUBCHEM_CACTVS_HBOND_DONOR>
1

> <PUBCHEM_CACTVS_ROTATABLE_BOND>
6

> <PUBCHEM_CACTVS_SUBSKEYS>
AAADceB7sABAAAAAAAAAAAAAAAAAAWAAAAA8WIAABAAAAAAB/AAAHgQYQAAADAzF3gS+gJJIEAKqA7R3RHDShCA1giAY2KE4ZNgIYPrA1dGUpYhgiADIyccYicCOwAACAAAQAACAAAQAACAAAAAAAAAAAA==

> <PUBCHEM_IUPAC_OPENEYE_NAME>
1-[5-(1-methylpyrazol-4-yl)-2-oxo-7-azatricyclo[9.4.0.03,8]pentadeca-1(11),3(8),4,6,9,12,14-heptaen-14-yl]-N-(2-pyridylmethyl)methanesulfonamide

> <PUBCHEM_IUPAC_CAS_NAME>
1-[5-(1-methyl-4-pyrazolyl)-2-oxo-7-azatricyclo[9.4.0.03,8]pentadeca-1(11),3(8),4,6,9,12,14-heptaen-14-yl]-N-(2-pyridinylmethyl)methanesulfonamide

> <PUBCHEM_IUPAC_NAME_MARKUP>
1-[5-(1-methylpyrazol-4-yl)-2-oxo-7-azatricyclo[9.4.0.0<SUP>3,8</SUP>]pentadeca-1(11),3(8),4,6,9,12,14-heptaen-14-yl]-<I>N</I>-(pyridin-2-ylmethyl)methanesulfonamide

> <PUBCHEM_IUPAC_NAME>
1-[5-(1-methylpyrazol-4-yl)-2-oxo-7-azatricyclo[9.4.0.03,8]pentadeca-1(11),3(8),4,6,9,12,14-heptaen-14-yl]-N-(pyridin-2-ylmethyl)methanesulfonamide

> <PUBCHEM_IUPAC_SYSTEMATIC_NAME>
1-[5-(1-methylpyrazol-4-yl)-2-oxidanylidene-7-azatricyclo[9.4.0.03,8]pentadeca-1(11),3(8),4,6,9,12,14-heptaen-14-yl]-N-(pyridin-2-ylmethyl)methanesulfonamide

> <PUBCHEM_IUPAC_TRADITIONAL_NAME>
1-[2-keto-5-(1-methylpyrazol-4-yl)-7-azatricyclo[9.4.0.03,8]pentadeca-1(11),3(8),4,6,9,12,14-heptaen-14-yl]-N-(2-pyridylmethyl)methanesulfonamide

> <PUBCHEM_IUPAC_INCHI>
InChI=1S/C25H21N5O3S/c1-30-15-20(13-28-30)19-11-23-24(27-12-19)8-7-18-6-5-17(10-22(18)25(23)31)16-34(32,33)29-14-21-4-2-3-9-26-21/h2-13,15,29H,14,16H2,1H3

> <PUBCHEM_IUPAC_INCHIKEY>
VMJFTOSOFDEKTM-UHFFFAOYSA-N

> <PUBCHEM_XLOGP3_AA>
2.1

> <PUBCHEM_EXACT_MASS>
471.13651072

> <PUBCHEM_MOLECULAR_FORMULA>
C25H21N5O3S

> <PUBCHEM_MOLECULAR_WEIGHT>
471.5

> <PUBCHEM_OPENEYE_CAN_SMILES>
CN1C=C(C=N1)C2=CC3=C(C=CC4=C(C3=O)C=C(C=C4)CS(=O)(=O)NCC5=CC=CC=N5)N=C2

> <PUBCHEM_OPENEYE_ISO_SMILES>
CN1C=C(C=N1)C2=CC3=C(C=CC4=C(C3=O)C=C(C=C4)CS(=O)(=O)NCC5=CC=CC=N5)N=C2

> <PUBCHEM_CACTVS_TPSA>
115

> <PUBCHEM_MONOISOTOPIC_WEIGHT>
471.13651072

> <PUBCHEM_TOTAL_CHARGE>
0

> <PUBCHEM_HEAVY_ATOM_COUNT>
34

> <PUBCHEM_ATOM_DEF_STEREO_COUNT>
0

> <PUBCHEM_ATOM_UDEF_STEREO_COUNT>
0

> <PUBCHEM_BOND_DEF_STEREO_COUNT>
0

> <PUBCHEM_BOND_UDEF_STEREO_COUNT>
0

> <PUBCHEM_ISOTOPIC_ATOM_COUNT>
0

> <PUBCHEM_COMPONENT_COUNT>
1

> <PUBCHEM_CACTVS_TAUTO_COUNT>
-1

> <PUBCHEM_COORDINATE_TYPE>
1
5
255

> <PUBCHEM_BONDANNOTATIONS>
10  14  8
10  17  8
12  13  8
12  14  8
12  16  8
13  18  8
13  20  8
15  16  8
15  19  8
15  21  8
17  18  8
19  22  8
20  22  8
21  23  8
23  26  8
25  28  8
25  29  8
27  30  8
30  32  8
32  34  8
33  34  8
6  19  8
6  26  8
7  28  8
7  8  8
8  29  8
9  27  8
9  33  8

$$$$
71736582
  -OEChem-11282412102D

 48 50  0     0  0  0  0  0  0999 V2000
    2.0000   -3.0994    0.0000 F   0  0  0  0  0  0  0  0  0  0  0  0
    5.4641   -3.0994    0.0000 F   0  0  0  0  0  0  0  0  0  0  0  0
    4.5981   -1.5994    0.0000 O   0  0  0  0  0  0  0  0  0  0  0  0
    5.4641   -5.0994    0.0000 O   0  0  0  0  0  0  0  0  0  0  0  0
    2.0000   -5.0994    0.0000 O   0  0  0  0  0  0  0  0  0  0  0  0
    8.3548    6.0346    0.0000 O   0  0  0  0  0  0  0  0  0  0  0  0
    6.5468    4.1030    0.0000 N   0  0  0  0  0  0  0  0  0  0  0  0
    4.5981    2.4006    0.0000 N   0  0  0  0  0  0  0  0  0  0  0  0
    7.0468    3.2370    0.0000 N   0  0  0  0  0  0  0  0  0  0  0  0
    5.4641    0.9006    0.0000 N   0  0  0  0  0  0  0  0  0  0  0  0
    3.7320    0.9006    0.0000 N   0  0  0  0  0  0  0  0  0  0  0  0
    3.7320   -3.0994    0.0000 C   0  0  0  0  0  0  0  0  0  0  0  0
    6.9535    5.0165    0.0000 C   0  0  0  0  0  0  0  0  0  0  0  0
    3.7320   -2.0994    0.0000 C   0  0  0  0  0  0  0  0  0  0  0  0
    5.4641    2.9006    0.0000 C   0  0  0  0  0  0  0  0  0  0  0  0
    5.5686    3.8951    0.0000 C   0  0  0  0  0  0  0  0  0  0  0  0
    2.8660   -3.5994    0.0000 C   0  0  0  0  0  0  0  0  0  0  0  0
    4.5981   -3.5994    0.0000 C   0  0  0  0  0  0  0  0  0  0  0  0
    4.5981   -4.5994    0.0000 C   0  0  0  0  0  0  0  0  0  0  0  0
    2.8660   -4.5994    0.0000 C   0  0  0  0  0  0  0  0  0  0  0  0
    7.9480    5.1211    0.0000 C   0  0  0  0  0  0  0  0  0  0  0  0
    3.7320   -5.0994    0.0000 C   0  0  0  0  0  0  0  0  0  0  0  0
    6.3776    2.4938    0.0000 C   0  0  0  0  0  0  0  0  0  0  0  0
    4.5981   -0.5994    0.0000 C   0  0  0  0  0  0  0  0  0  0  0  0
    4.5981    1.4006    0.0000 C   0  0  0  0  0  0  0  0  0  0  0  0
    5.4641   -0.0994    0.0000 C   0  0  0  0  0  0  0  0  0  0  0  0
    3.7320   -0.0994    0.0000 C   0  0  0  0  0  0  0  0  0  0  0  0
    5.4641   -6.0994    0.0000 C   0  0  0  0  0  0  0  0  0  0  0  0
    2.0000   -6.0994    0.0000 C   0  0  0  0  0  0  0  0  0  0  0  0
    6.9968    5.6350    0.0000 H   0  0  0  0  0  0  0  0  0  0  0  0
    6.3519    5.1665    0.0000 H   0  0  0  0  0  0  0  0  0  0  0  0
    3.5200   -1.5168    0.0000 H   0  0  0  0  0  0  0  0  0  0  0  0
    3.1215   -2.2071    0.0000 H   0  0  0  0  0  0  0  0  0  0  0  0
    5.1079    4.3100    0.0000 H   0  0  0  0  0  0  0  0  0  0  0  0
    7.9048    4.5026    0.0000 H   0  0  0  0  0  0  0  0  0  0  0  0
    8.5496    4.9711    0.0000 H   0  0  0  0  0  0  0  0  0  0  0  0
    3.7320   -5.7194    0.0000 H   0  0  0  0  0  0  0  0  0  0  0  0
    6.5066    1.8874    0.0000 H   0  0  0  0  0  0  0  0  0  0  0  0
    4.0611    2.7106    0.0000 H   0  0  0  0  0  0  0  0  0  0  0  0
    6.0010   -0.4094    0.0000 H   0  0  0  0  0  0  0  0  0  0  0  0
    3.1951   -0.4094    0.0000 H   0  0  0  0  0  0  0  0  0  0  0  0
    8.9714    6.0994    0.0000 H   0  0  0  0  0  0  0  0  0  0  0  0
    4.8441   -6.0994    0.0000 H   0  0  0  0  0  0  0  0  0  0  0  0
    5.4641   -6.7194    0.0000 H   0  0  0  0  0  0  0  0  0  0  0  0
    6.0841   -6.0994    0.0000 H   0  0  0  0  0  0  0  0  0  0  0  0
    1.3800   -6.0994    0.0000 H   0  0  0  0  0  0  0  0  0  0  0  0
    2.0000   -6.7194    0.0000 H   0  0  0  0  0  0  0  0  0  0  0  0
    2.6200   -6.0994    0.0000 H   0  0  0  0  0  0  0  0  0  0  0  0
  1 17  1  0  0  0  0
  2 18  1  0  0  0  0
  3 14  1  0  0  0  0
  3 24  1  0  0  0  0
  4 19  1  0  0  0  0
  4 28  1  0  0  0  0
  5 20  1  0  0  0  0
  5 29  1  0  0  0  0
  6 21  1  0  0  0  0
  6 42  1  0  0  0  0
  7  9  1  0  0  0  0
  7 13  1  0  0  0  0
  7 16  1  0  0  0  0
  8 15  1  0  0  0  0
  8 25  1  0  0  0  0
  8 39  1  0  0  0  0
  9 23  2  0  0  0  0
 10 25  1  0  0  0  0
 10 26  2  0  0  0  0
 11 25  2  0  0  0  0
 11 27  1  0  0  0  0
 12 14  1  0  0  0  0
 12 17  2  0  0  0  0
 12 18  1  0  0  0  0
 13 21  1  0  0  0  0
 13 30  1  0  0  0  0
 13 31  1  0  0  0  0
 14 32  1  0  0  0  0
 14 33  1  0  0  0  0
 15 16  2  0  0  0  0
 15 23  1  0  0  0  0
 16 34  1  0  0  0  0
 17 20  1  0  0  0  0
 18 19  2  0  0  0  0
 19 22  1  0  0  0  0
 20 22  2  0  0  0  0
 21 35  1  0  0  0  0
 21 36  1  0  0  0  0
 22 37  1  0  0  0  0
 23 38  1  0  0  0  0
 24 26  1  0  0  0  0
 24 27  2  0  0  0  0
 26 40  1  0  0  0  0
 27 41  1  0  0  0  0
 28 43  1  0  0  0  0
 28 44  1  0  0  0  0
 28 45  1  0  0  0  0
 29 46  1  0  0  0  0
 29 47  1  0  0  0  0
 29 48  1  0  0  0  0
M  END
> <PUBCHEM_COMPOUND_CID>
71736582

> <PUBCHEM_COMPOUND_CANONICALIZED>
1

> <PUBCHEM_CACTVS_COMPLEXITY>
473

> <PUBCHEM_CACTVS_HBOND_ACCEPTOR>
10

> <PUBCHEM_CACTVS_HBOND_DONOR>
2

> <PUBCHEM_CACTVS_ROTATABLE_BOND>
9

> <PUBCHEM_CACTVS_SUBSKEYS>
AAADceB7uYAAAAAAAAAAAAAAAAAAAWAAAAA8QAAAAAAAAAAB8AAAHwAYCAAADAzhmg4/1pbIFgCiAjRnZASSjCkx8qAR2CAvfJiOf6LEeVqXvCit2BfYqCfA4DwOAAABCAAAAAAAAAIQAAAAAAAAAAAAAA==

> <PUBCHEM_IUPAC_OPENEYE_NAME>
2-[4-[[5-[(2,6-difluoro-3,5-dimethoxy-phenyl)methoxy]pyrimidin-2-yl]amino]pyrazol-1-yl]ethanol

> <PUBCHEM_IUPAC_CAS_NAME>
2-[4-[[5-[(2,6-difluoro-3,5-dimethoxyphenyl)methoxy]-2-pyrimidinyl]amino]-1-pyrazolyl]ethanol

> <PUBCHEM_IUPAC_NAME_MARKUP>
2-[4-[[5-[(2,6-difluoro-3,5-dimethoxyphenyl)methoxy]pyrimidin-2-yl]amino]pyrazol-1-yl]ethanol

> <PUBCHEM_IUPAC_NAME>
2-[4-[[5-[(2,6-difluoro-3,5-dimethoxyphenyl)methoxy]pyrimidin-2-yl]amino]pyrazol-1-yl]ethanol

> <PUBCHEM_IUPAC_SYSTEMATIC_NAME>
2-[4-[[5-[[2,6-bis(fluoranyl)-3,5-dimethoxy-phenyl]methoxy]pyrimidin-2-yl]amino]pyrazol-1-yl]ethanol

> <PUBCHEM_IUPAC_TRADITIONAL_NAME>
2-[4-[[5-(2,6-difluoro-3,5-dimethoxy-benzyl)oxypyrimidin-2-yl]amino]pyrazol-1-yl]ethanol

> <PUBCHEM_IUPAC_INCHI>
InChI=1S/C18H19F2N5O4/c1-27-14-5-15(28-2)17(20)13(16(14)19)10-29-12-7-21-18(22-8-12)24-11-6-23-25(9-11)3-4-26/h5-9,26H,3-4,10H2,1-2H3,(H,21,22,24)

> <PUBCHEM_IUPAC_INCHIKEY>
VDZZYOJYLLNBTD-UHFFFAOYSA-N

> <PUBCHEM_XLOGP3_AA>
1.2

> <PUBCHEM_EXACT_MASS>
407.14051043

> <PUBCHEM_MOLECULAR_FORMULA>
C18H19F2N5O4

> <PUBCHEM_MOLECULAR_WEIGHT>
407.4

> <PUBCHEM_OPENEYE_CAN_SMILES>
COC1=CC(=C(C(=C1F)COC2=CN=C(N=C2)NC3=CN(N=C3)CCO)F)OC

> <PUBCHEM_OPENEYE_ISO_SMILES>
COC1=CC(=C(C(=C1F)COC2=CN=C(N=C2)NC3=CN(N=C3)CCO)F)OC

> <PUBCHEM_CACTVS_TPSA>
104

> <PUBCHEM_MONOISOTOPIC_WEIGHT>
407.14051043

> <PUBCHEM_TOTAL_CHARGE>
0

> <PUBCHEM_HEAVY_ATOM_COUNT>
29

> <PUBCHEM_ATOM_DEF_STEREO_COUNT>
0

> <PUBCHEM_ATOM_UDEF_STEREO_COUNT>
0

> <PUBCHEM_BOND_DEF_STEREO_COUNT>
0

> <PUBCHEM_BOND_UDEF_STEREO_COUNT>
0

> <PUBCHEM_ISOTOPIC_ATOM_COUNT>
0

> <PUBCHEM_COMPONENT_COUNT>
1

> <PUBCHEM_CACTVS_TAUTO_COUNT>
-1

> <PUBCHEM_COORDINATE_TYPE>
1
5
255

> <PUBCHEM_BONDANNOTATIONS>
10  25  8
10  26  8
11  25  8
11  27  8
12  17  8
12  18  8
15  16  8
15  23  8
17  20  8
18  19  8
19  22  8
20  22  8
24  26  8
24  27  8
7  16  8
7  9  8
9  23  8

$$$$
72710839
  -OEChem-11282412102D

 57 60  0     0  0  0  0  0  0999 V2000
    4.5981    0.7329    0.0000 Cl  0  0  0  0  0  0  0  0  0  0  0  0
    6.3301   -2.2671    0.0000 Cl  0  0  0  0  0  0  0  0  0  0  0  0
    4.5981   -3.2671    0.0000 O   0  0  0  0  0  0  0  0  0  0  0  0
    2.8660   -0.2671    0.0000 O   0  0  0  0  0  0  0  0  0  0  0  0
   13.3147    3.7671    0.0000 O   0  0  0  0  0  0  0  0  0  0  0  0
   10.7263    1.2571    0.0000 N   0  0  0  0  0  0  0  0  0  0  0  0
    8.9561    1.2676    0.0000 N   0  0  0  0  0  0  0  0  0  0  0  0
    9.8622   -0.2879    0.0000 N   0  0  0  0  0  0  0  0  0  0  0  0
   12.4545    2.2638    0.0000 N   0  0  0  0  0  0  0  0  0  0  0  0
    6.3301   -0.2671    0.0000 C   0  0  0  0  0  0  0  0  0  0  0  0
    8.0622   -0.2671    0.0000 C   0  0  0  0  0  0  0  0  0  0  0  0
    5.4641   -0.7671    0.0000 C   0  0  0  0  0  0  0  0  0  0  0  0
    8.0622    0.7329    0.0000 C   0  0  0  0  0  0  0  0  0  0  0  0
    7.1962   -0.7671    0.0000 C   0  0  0  0  0  0  0  0  0  0  0  0
   11.5942    0.7604    0.0000 C   0  0  0  0  0  0  0  0  0  0  0  0
    6.3301    0.7329    0.0000 C   0  0  0  0  0  0  0  0  0  0  0  0
    7.1962    1.2329    0.0000 C   0  0  0  0  0  0  0  0  0  0  0  0
   11.5981   -0.2396    0.0000 C   0  0  0  0  0  0  0  0  0  0  0  0
   12.4583    1.2638    0.0000 C   0  0  0  0  0  0  0  0  0  0  0  0
    9.8622    0.7537    0.0000 C   0  0  0  0  0  0  0  0  0  0  0  0
    4.5981   -0.2671    0.0000 C   0  0  0  0  0  0  0  0  0  0  0  0
    5.4641   -1.7671    0.0000 C   0  0  0  0  0  0  0  0  0  0  0  0
    8.9561   -0.8017    0.0000 C   0  0  0  0  0  0  0  0  0  0  0  0
    4.5981   -2.2671    0.0000 C   0  0  0  0  0  0  0  0  0  0  0  0
    3.7320   -0.7671    0.0000 C   0  0  0  0  0  0  0  0  0  0  0  0
   12.4660   -0.7362    0.0000 C   0  0  0  0  0  0  0  0  0  0  0  0
   13.3263    0.7671    0.0000 C   0  0  0  0  0  0  0  0  0  0  0  0
    3.7320   -1.7671    0.0000 C   0  0  0  0  0  0  0  0  0  0  0  0
   10.7340   -0.7429    0.0000 C   0  0  0  0  0  0  0  0  0  0  0  0
   13.3301   -0.2329    0.0000 C   0  0  0  0  0  0  0  0  0  0  0  0
   13.3186    2.7671    0.0000 C   0  0  0  0  0  0  0  0  0  0  0  0
    3.7320   -3.7671    0.0000 C   0  0  0  0  0  0  0  0  0  0  0  0
    2.0000   -0.7671    0.0000 C   0  0  0  0  0  0  0  0  0  0  0  0
   14.1865    2.2704    0.0000 C   0  0  0  0  0  0  0  0  0  0  0  0
   15.0506    2.7738    0.0000 C   0  0  0  0  0  0  0  0  0  0  0  0
    7.1962   -1.3871    0.0000 H   0  0  0  0  0  0  0  0  0  0  0  0
    5.7932    1.0429    0.0000 H   0  0  0  0  0  0  0  0  0  0  0  0
    7.1962    1.8529    0.0000 H   0  0  0  0  0  0  0  0  0  0  0  0
   10.7239    1.8771    0.0000 H   0  0  0  0  0  0  0  0  0  0  0  0
    8.9490   -1.4217    0.0000 H   0  0  0  0  0  0  0  0  0  0  0  0
   12.4684   -1.3562    0.0000 H   0  0  0  0  0  0  0  0  0  0  0  0
   13.8620    1.0792    0.0000 H   0  0  0  0  0  0  0  0  0  0  0  0
    3.1951   -2.0771    0.0000 H   0  0  0  0  0  0  0  0  0  0  0  0
   10.4219   -0.2072    0.0000 H   0  0  0  0  0  0  0  0  0  0  0  0
   10.1983   -1.0550    0.0000 H   0  0  0  0  0  0  0  0  0  0  0  0
   11.0461   -1.2786    0.0000 H   0  0  0  0  0  0  0  0  0  0  0  0
   13.8682   -0.5408    0.0000 H   0  0  0  0  0  0  0  0  0  0  0  0
   11.9163    2.5717    0.0000 H   0  0  0  0  0  0  0  0  0  0  0  0
    3.4220   -3.2301    0.0000 H   0  0  0  0  0  0  0  0  0  0  0  0
    3.1951   -4.0771    0.0000 H   0  0  0  0  0  0  0  0  0  0  0  0
    4.0420   -4.3040    0.0000 H   0  0  0  0  0  0  0  0  0  0  0  0
    1.6900   -0.2301    0.0000 H   0  0  0  0  0  0  0  0  0  0  0  0
    1.4631   -1.0771    0.0000 H   0  0  0  0  0  0  0  0  0  0  0  0
    2.3100   -1.3040    0.0000 H   0  0  0  0  0  0  0  0  0  0  0  0
   14.1889    1.6504    0.0000 H   0  0  0  0  0  0  0  0  0  0  0  0
   15.5887    2.4658    0.0000 H   0  0  0  0  0  0  0  0  0  0  0  0
   15.0482    3.3938    0.0000 H   0  0  0  0  0  0  0  0  0  0  0  0
  1 21  1  0  0  0  0
  2 22  1  0  0  0  0
  3 24  1  0  0  0  0
  3 32  1  0  0  0  0
  4 25  1  0  0  0  0
  4 33  1  0  0  0  0
  5 31  2  0  0  0  0
  6 15  1  0  0  0  0
  6 20  1  0  0  0  0
  6 39  1  0  0  0  0
  7 13  2  0  0  0  0
  7 20  1  0  0  0  0
  8 20  2  0  0  0  0
  8 23  1  0  0  0  0
  9 19  1  0  0  0  0
  9 31  1  0  0  0  0
  9 48  1  0  0  0  0
 10 12  1  0  0  0  0
 10 14  2  0  0  0  0
 10 16  1  0  0  0  0
 11 13  1  0  0  0  0
 11 14  1  0  0  0  0
 11 23  2  0  0  0  0
 12 21  2  0  0  0  0
 12 22  1  0  0  0  0
 13 17  1  0  0  0  0
 14 36  1  0  0  0  0
 15 18  2  0  0  0  0
 15 19  1  0  0  0  0
 16 17  2  0  0  0  0
 16 37  1  0  0  0  0
 17 38  1  0  0  0  0
 18 26  1  0  0  0  0
 18 29  1  0  0  0  0
 19 27  2  0  0  0  0
 21 25  1  0  0  0  0
 22 24  2  0  0  0  0
 23 40  1  0  0  0  0
 24 28  1  0  0  0  0
 25 28  2  0  0  0  0
 26 30  2  0  0  0  0
 26 41  1  0  0  0  0
 27 30  1  0  0  0  0
 27 42  1  0  0  0  0
 28 43  1  0  0  0  0
 29 44  1  0  0  0  0
 29 45  1  0  0  0  0
 29 46  1  0  0  0  0
 30 47  1  0  0  0  0
 31 34  1  0  0  0  0
 32 49  1  0  0  0  0
 32 50  1  0  0  0  0
 32 51  1  0  0  0  0
 33 52  1  0  0  0  0
 33 53  1  0  0  0  0
 33 54  1  0  0  0  0
 34 35  2  0  0  0  0
 34 55  1  0  0  0  0
 35 56  1  0  0  0  0
 35 57  1  0  0  0  0
M  END
> <PUBCHEM_COMPOUND_CID>
72710839

> <PUBCHEM_COMPOUND_CANONICALIZED>
1

> <PUBCHEM_CACTVS_COMPLEXITY>
715

> <PUBCHEM_CACTVS_HBOND_ACCEPTOR>
6

> <PUBCHEM_CACTVS_HBOND_DONOR>
2

> <PUBCHEM_CACTVS_ROTATABLE_BOND>
7

> <PUBCHEM_CACTVS_SUBSKEYS>
AAADceB7sAAGAAAAAAAAAAAAAAAAAAAAAAA8YMEAAAAAAACx9AAAHgIQAAAADA7BniY/1vbIFACoAzV3dACCiCkxJuAJ2CA+f9iMb6PF+9uUNCht1BfI6KeQ4PwOiCADSACDCCAQQAaQAQYQQAAAAAAAAA==

> <PUBCHEM_IUPAC_OPENEYE_NAME>
N-[2-[[6-(2,6-dichloro-3,5-dimethoxy-phenyl)quinazolin-2-yl]amino]-3-methyl-phenyl]prop-2-enamide

> <PUBCHEM_IUPAC_CAS_NAME>
N-[2-[[6-(2,6-dichloro-3,5-dimethoxyphenyl)-2-quinazolinyl]amino]-3-methylphenyl]-2-propenamide

> <PUBCHEM_IUPAC_NAME_MARKUP>
<I>N</I>-[2-[[6-(2,6-dichloro-3,5-dimethoxyphenyl)quinazolin-2-yl]amino]-3-methylphenyl]prop-2-enamide

> <PUBCHEM_IUPAC_NAME>
N-[2-[[6-(2,6-dichloro-3,5-dimethoxyphenyl)quinazolin-2-yl]amino]-3-methylphenyl]prop-2-enamide

> <PUBCHEM_IUPAC_SYSTEMATIC_NAME>
N-[2-[[6-[2,6-bis(chloranyl)-3,5-dimethoxy-phenyl]quinazolin-2-yl]amino]-3-methyl-phenyl]prop-2-enamide

> <PUBCHEM_IUPAC_TRADITIONAL_NAME>
N-[2-[[6-(2,6-dichloro-3,5-dimethoxy-phenyl)quinazolin-2-yl]amino]-3-methyl-phenyl]acrylamide

> <PUBCHEM_IUPAC_INCHI>
InChI=1S/C26H22Cl2N4O3/c1-5-21(33)30-18-8-6-7-14(2)25(18)32-26-29-13-16-11-15(9-10-17(16)31-26)22-23(27)19(34-3)12-20(35-4)24(22)28/h5-13H,1H2,2-4H3,(H,30,33)(H,29,31,32)

> <PUBCHEM_IUPAC_INCHIKEY>
TXEBNKKOLVBTFK-UHFFFAOYSA-N

> <PUBCHEM_XLOGP3_AA>
6.4

> <PUBCHEM_EXACT_MASS>
508.1068960

> <PUBCHEM_MOLECULAR_FORMULA>
C26H22Cl2N4O3

> <PUBCHEM_MOLECULAR_WEIGHT>
509.4

> <PUBCHEM_OPENEYE_CAN_SMILES>
CC1=C(C(=CC=C1)NC(=O)C=C)NC2=NC=C3C=C(C=CC3=N2)C4=C(C(=CC(=C4Cl)OC)OC)Cl

> <PUBCHEM_OPENEYE_ISO_SMILES>
CC1=C(C(=CC=C1)NC(=O)C=C)NC2=NC=C3C=C(C=CC3=N2)C4=C(C(=CC(=C4Cl)OC)OC)Cl

> <PUBCHEM_CACTVS_TPSA>
85.4

> <PUBCHEM_MONOISOTOPIC_WEIGHT>
508.1068960

> <PUBCHEM_TOTAL_CHARGE>
0

> <PUBCHEM_HEAVY_ATOM_COUNT>
35

> <PUBCHEM_ATOM_DEF_STEREO_COUNT>
0

> <PUBCHEM_ATOM_UDEF_STEREO_COUNT>
0

> <PUBCHEM_BOND_DEF_STEREO_COUNT>
0

> <PUBCHEM_BOND_UDEF_STEREO_COUNT>
0

> <PUBCHEM_ISOTOPIC_ATOM_COUNT>
0

> <PUBCHEM_COMPONENT_COUNT>
1

> <PUBCHEM_CACTVS_TAUTO_COUNT>
-1

> <PUBCHEM_COORDINATE_TYPE>
1
5
255

> <PUBCHEM_BONDANNOTATIONS>
10  14  8
10  16  8
11  13  8
11  14  8
11  23  8
12  21  8
12  22  8
13  17  8
15  18  8
15  19  8
16  17  8
18  26  8
19  27  8
21  25  8
22  24  8
24  28  8
25  28  8
26  30  8
27  30  8
7  13  8
7  20  8
8  20  8
8  23  8

$$$$
118036971
  -OEChem-11282412102D

 67 70  0     1  0  0  0  0  0999 V2000
    4.5981    3.7521    0.0000 O   0  0  0  0  0  0  0  0  0  0  0  0
    5.4747   -0.7725    0.0000 O   0  0  0  0  0  0  0  0  0  0  0  0
    2.8660   -0.2479    0.0000 O   0  0  0  0  0  0  0  0  0  0  0  0
    4.5452   -6.2621    0.0000 O   0  0  0  0  0  0  0  0  0  0  0  0
    2.8660    3.7521    0.0000 N   0  0  0  0  0  0  0  0  0  0  0  0
    6.3580    0.7174    0.0000 N   0  0  0  0  0  0  0  0  0  0  0  0
    2.8660    5.7521    0.0000 N   0  0  3  0  0  0  0  0  0  0  0  0
    4.5981    0.7521    0.0000 N   0  0  0  0  0  0  0  0  0  0  0  0
    7.2067   -0.7925    0.0000 N   0  0  0  0  0  0  0  0  0  0  0  0
    8.0553   -2.3024    0.0000 N   0  0  0  0  0  0  0  0  0  0  0  0
    5.4400   -3.7723    0.0000 N   0  0  0  0  0  0  0  0  0  0  0  0
    7.1488   -5.7922    0.0000 N   0  0  0  0  0  0  0  0  0  0  0  0
    6.3580    2.7867    0.0000 C   0  0  0  0  0  0  0  0  0  0  0  0
    5.4641    2.2521    0.0000 C   0  0  0  0  0  0  0  0  0  0  0  0
    7.2641    2.2729    0.0000 C   0  0  0  0  0  0  0  0  0  0  0  0
    2.0000    4.2521    0.0000 C   0  0  0  0  0  0  0  0  0  0  0  0
    2.8660    2.7521    0.0000 C   0  0  0  0  0  0  0  0  0  0  0  0
    7.2641    1.2312    0.0000 C   0  0  0  0  0  0  0  0  0  0  0  0
    2.0000    5.2521    0.0000 C   0  0  0  0  0  0  0  0  0  0  0  0
    3.7320    2.2521    0.0000 C   0  0  0  0  0  0  0  0  0  0  0  0
    5.4641    1.2521    0.0000 C   0  0  0  0  0  0  0  0  0  0  0  0
    4.5981    2.7521    0.0000 C   0  0  0  0  0  0  0  0  0  0  0  0
    3.7320    5.2521    0.0000 C   0  0  0  0  0  0  0  0  0  0  0  0
    3.7320    4.2521    0.0000 C   0  0  0  0  0  0  0  0  0  0  0  0
    3.7320    1.2521    0.0000 C   0  0  0  0  0  0  0  0  0  0  0  0
    2.8660    6.7521    0.0000 C   0  0  0  0  0  0  0  0  0  0  0  0
    6.3465   -0.2825    0.0000 C   0  0  0  0  0  0  0  0  0  0  0  0
    2.8660    0.7521    0.0000 C   0  0  0  0  0  0  0  0  0  0  0  0
    7.1951   -1.7924    0.0000 C   0  0  0  0  0  0  0  0  0  0  0  0
    6.3233   -2.2824    0.0000 C   0  0  0  0  0  0  0  0  0  0  0  0
    6.3118   -3.2823    0.0000 C   0  0  0  0  0  0  0  0  0  0  0  0
    7.1720   -3.7923    0.0000 C   0  0  0  0  0  0  0  0  0  0  0  0
    8.0437   -3.3024    0.0000 C   0  0  0  0  0  0  0  0  0  0  0  0
    5.4285   -4.7722    0.0000 C   0  0  0  0  0  0  0  0  0  0  0  0
    4.5567   -5.2622    0.0000 C   0  0  0  0  0  0  0  0  0  0  0  0
    7.1604   -4.7922    0.0000 C   0  0  0  0  0  0  0  0  0  0  0  0
    3.6734   -6.7521    0.0000 C   0  0  0  0  0  0  0  0  0  0  0  0
    6.7517    3.2657    0.0000 H   0  0  0  0  0  0  0  0  0  0  0  0
    5.9534    3.2565    0.0000 H   0  0  0  0  0  0  0  0  0  0  0  0
    7.8750    2.1668    0.0000 H   0  0  0  0  0  0  0  0  0  0  0  0
    7.4732    2.8566    0.0000 H   0  0  0  0  0  0  0  0  0  0  0  0
    1.3894    4.3597    0.0000 H   0  0  0  0  0  0  0  0  0  0  0  0
    1.7880    3.6694    0.0000 H   0  0  0  0  0  0  0  0  0  0  0  0
    2.2554    2.8597    0.0000 H   0  0  0  0  0  0  0  0  0  0  0  0
    2.6540    2.1694    0.0000 H   0  0  0  0  0  0  0  0  0  0  0  0
    7.4732    0.6476    0.0000 H   0  0  0  0  0  0  0  0  0  0  0  0
    7.8750    1.3373    0.0000 H   0  0  0  0  0  0  0  0  0  0  0  0
    1.7880    5.8347    0.0000 H   0  0  0  0  0  0  0  0  0  0  0  0
    1.3894    5.1444    0.0000 H   0  0  0  0  0  0  0  0  0  0  0  0
    4.5981    3.3721    0.0000 H   0  0  0  0  0  0  0  0  0  0  0  0
    4.3426    5.1444    0.0000 H   0  0  0  0  0  0  0  0  0  0  0  0
    3.9441    5.8347    0.0000 H   0  0  0  0  0  0  0  0  0  0  0  0
    3.4860    6.7521    0.0000 H   0  0  0  0  0  0  0  0  0  0  0  0
    2.8660    7.3721    0.0000 H   0  0  0  0  0  0  0  0  0  0  0  0
    2.2460    6.7521    0.0000 H   0  0  0  0  0  0  0  0  0  0  0  0
    2.3291    1.0621    0.0000 H   0  0  0  0  0  0  0  0  0  0  0  0
    7.7472   -0.4887    0.0000 H   0  0  0  0  0  0  0  0  0  0  0  0
    5.7900   -1.9662    0.0000 H   0  0  0  0  0  0  0  0  0  0  0  0
    4.9067   -3.4561    0.0000 H   0  0  0  0  0  0  0  0  0  0  0  0
    8.5770   -3.6186    0.0000 H   0  0  0  0  0  0  0  0  0  0  0  0
    5.6338   -5.3572    0.0000 H   0  0  0  0  0  0  0  0  0  0  0  0
    6.0403   -4.6716    0.0000 H   0  0  0  0  0  0  0  0  0  0  0  0
    4.3514   -4.6772    0.0000 H   0  0  0  0  0  0  0  0  0  0  0  0
    3.9449   -5.3628    0.0000 H   0  0  0  0  0  0  0  0  0  0  0  0
    3.3696   -6.2116    0.0000 H   0  0  0  0  0  0  0  0  0  0  0  0
    3.1329   -7.0558    0.0000 H   0  0  0  0  0  0  0  0  0  0  0  0
    3.9772   -7.2925    0.0000 H   0  0  0  0  0  0  0  0  0  0  0  0
  1 24  2  0  0  0  0
  2 27  2  0  0  0  0
  3 28  2  0  0  0  0
  4 35  1  0  0  0  0
  4 37  1  0  0  0  0
  5 16  1  0  0  0  0
  5 17  1  0  0  0  0
  5 24  1  0  0  0  0
  6 18  1  0  0  0  0
  6 21  1  0  0  0  0
  6 27  1  0  0  0  0
  7 19  1  0  0  0  0
  7 23  1  0  0  0  0
  7 26  1  0  0  0  0
  8 21  2  0  0  0  0
  8 25  1  0  0  0  0
  9 27  1  0  0  0  0
  9 29  1  0  0  0  0
  9 57  1  0  0  0  0
 10 29  2  0  0  0  0
 10 33  1  0  0  0  0
 11 31  1  0  0  0  0
 11 34  1  0  0  0  0
 11 59  1  0  0  0  0
 12 36  3  0  0  0  0
 13 14  1  0  0  0  0
 13 15  1  0  0  0  0
 13 38  1  0  0  0  0
 13 39  1  0  0  0  0
 14 21  1  0  0  0  0
 14 22  2  0  0  0  0
 15 18  1  0  0  0  0
 15 40  1  0  0  0  0
 15 41  1  0  0  0  0
 16 19  1  0  0  0  0
 16 42  1  0  0  0  0
 16 43  1  0  0  0  0
 17 20  1  0  0  0  0
 17 44  1  0  0  0  0
 17 45  1  0  0  0  0
 18 46  1  0  0  0  0
 18 47  1  0  0  0  0
 19 48  1  0  0  0  0
 19 49  1  0  0  0  0
 20 22  1  0  0  0  0
 20 25  2  0  0  0  0
 22 50  1  0  0  0  0
 23 24  1  0  0  0  0
 23 51  1  0  0  0  0
 23 52  1  0  0  0  0
 25 28  1  0  0  0  0
 26 53  1  0  0  0  0
 26 54  1  0  0  0  0
 26 55  1  0  0  0  0
 28 56  1  0  0  0  0
 29 30  1  0  0  0  0
 30 31  2  0  0  0  0
 30 58  1  0  0  0  0
 31 32  1  0  0  0  0
 32 33  2  0  0  0  0
 32 36  1  0  0  0  0
 33 60  1  0  0  0  0
 34 35  1  0  0  0  0
 34 61  1  0  0  0  0
 34 62  1  0  0  0  0
 35 63  1  0  0  0  0
 35 64  1  0  0  0  0
 37 65  1  0  0  0  0
 37 66  1  0  0  0  0
 37 67  1  0  0  0  0
M  END
> <PUBCHEM_COMPOUND_CID>
118036971

> <PUBCHEM_COMPOUND_CANONICALIZED>
1

> <PUBCHEM_CACTVS_COMPLEXITY>
865

> <PUBCHEM_CACTVS_HBOND_ACCEPTOR>
9

> <PUBCHEM_CACTVS_HBOND_DONOR>
2

> <PUBCHEM_CACTVS_ROTATABLE_BOND>
8

> <PUBCHEM_CACTVS_SUBSKEYS>
AAADceB7+AAAAAAAAAAAAAAAAAAAAAAAAAAsWLFgAAAAAACx4AAAHgAQAAAADAjhngY/8JPIFAC4Bz939ACigCk3AiAB2KG4ZNiK4PLA3fGVJQholwLYyS8ciMCOAAAAAAAAAAAAAAAAAAAAAAAAAAAAAA==

> <PUBCHEM_IUPAC_OPENEYE_NAME>
N-[5-cyano-4-(2-methoxyethylamino)-2-pyridyl]-7-formyl-6-[(4-methyl-2-oxo-piperazin-1-yl)methyl]-3,4-dihydro-2H-1,8-naphthyridine-1-carboxamide

> <PUBCHEM_IUPAC_CAS_NAME>
N-[5-cyano-4-(2-methoxyethylamino)-2-pyridinyl]-7-formyl-6-[(4-methyl-2-oxo-1-piperazinyl)methyl]-3,4-dihydro-2H-1,8-naphthyridine-1-carboxamide

> <PUBCHEM_IUPAC_NAME_MARKUP>
<I>N</I>-[5-cyano-4-(2-methoxyethylamino)pyridin-2-yl]-7-formyl-6-[(4-methyl-2-oxopiperazin-1-yl)methyl]-3,4-dihydro-2<I>H</I>-1,8-naphthyridine-1-carboxamide

> <PUBCHEM_IUPAC_NAME>
N-[5-cyano-4-(2-methoxyethylamino)pyridin-2-yl]-7-formyl-6-[(4-methyl-2-oxopiperazin-1-yl)methyl]-3,4-dihydro-2H-1,8-naphthyridine-1-carboxamide

> <PUBCHEM_IUPAC_SYSTEMATIC_NAME>
N-[5-cyano-4-(2-methoxyethylamino)pyridin-2-yl]-7-methanoyl-6-[(4-methyl-2-oxidanylidene-piperazin-1-yl)methyl]-3,4-dihydro-2H-1,8-naphthyridine-1-carboxamide

> <PUBCHEM_IUPAC_TRADITIONAL_NAME>
N-[5-cyano-4-(2-methoxyethylamino)-2-pyridyl]-7-formyl-6-[(2-keto-4-methyl-piperazino)methyl]-3,4-dihydro-2H-1,8-naphthyridine-1-carboxamide

> <PUBCHEM_IUPAC_INCHI>
InChI=1S/C25H30N8O4/c1-31-7-8-32(23(35)15-31)14-18-10-17-4-3-6-33(24(17)29-21(18)16-34)25(36)30-22-11-20(27-5-9-37-2)19(12-26)13-28-22/h10-11,13,16H,3-9,14-15H2,1-2H3,(H2,27,28,30,36)

> <PUBCHEM_IUPAC_INCHIKEY>
BHKDKKZMPODMIQ-UHFFFAOYSA-N

> <PUBCHEM_XLOGP3_AA>
0.6

> <PUBCHEM_EXACT_MASS>
506.23900147

> <PUBCHEM_MOLECULAR_FORMULA>
C25H30N8O4

> <PUBCHEM_MOLECULAR_WEIGHT>
506.6

> <PUBCHEM_OPENEYE_CAN_SMILES>
CN1CCN(C(=O)C1)CC2=C(N=C3C(=C2)CCCN3C(=O)NC4=NC=C(C(=C4)NCCOC)C#N)C=O

> <PUBCHEM_OPENEYE_ISO_SMILES>
CN1CCN(C(=O)C1)CC2=C(N=C3C(=C2)CCCN3C(=O)NC4=NC=C(C(=C4)NCCOC)C#N)C=O

> <PUBCHEM_CACTVS_TPSA>
144

> <PUBCHEM_MONOISOTOPIC_WEIGHT>
506.23900147

> <PUBCHEM_TOTAL_CHARGE>
0

> <PUBCHEM_HEAVY_ATOM_COUNT>
37

> <PUBCHEM_ATOM_DEF_STEREO_COUNT>
0

> <PUBCHEM_ATOM_UDEF_STEREO_COUNT>
0

> <PUBCHEM_BOND_DEF_STEREO_COUNT>
0

> <PUBCHEM_BOND_UDEF_STEREO_COUNT>
0

> <PUBCHEM_ISOTOPIC_ATOM_COUNT>
0

> <PUBCHEM_COMPONENT_COUNT>
1

> <PUBCHEM_CACTVS_TAUTO_COUNT>
91

> <PUBCHEM_COORDINATE_TYPE>
1
5
255

> <PUBCHEM_BONDANNOTATIONS>
10  29  8
10  33  8
14  21  8
14  22  8
20  22  8
20  25  8
29  30  8
30  31  8
31  32  8
32  33  8
8  21  8
8  25  8

$$$$
156024486
  -OEChem-11282412102D

 52 56  0     1  0  0  0  0  0999 V2000
    2.0418   -2.5612    0.0000 F   0  0  0  0  0  0  0  0  0  0  0  0
    3.7739   -2.5546    0.0000 F   0  0  0  0  0  0  0  0  0  0  0  0
    6.9901   -3.7111    0.0000 F   0  0  0  0  0  0  0  0  0  0  0  0
    2.0080    0.5045    0.0000 O   0  0  0  0  0  0  0  0  0  0  0  0
    5.6752    0.1399    0.0000 O   0  0  0  0  0  0  0  0  0  0  0  0
    6.6343    3.7111    0.0000 O   0  0  0  0  0  0  0  0  0  0  0  0
    3.8001   -0.5302    0.0000 N   0  0  3  0  0  0  0  0  0  0  0  0
    7.2620    2.3371    0.0000 N   0  0  0  0  0  0  0  0  0  0  0  0
    3.7841    2.5114    0.0000 N   0  0  0  0  0  0  0  0  0  0  0  0
    4.6501    1.0114    0.0000 N   0  0  0  0  0  0  0  0  0  0  0  0
    3.9933    3.4832    0.0000 N   0  0  0  0  0  0  0  0  0  0  0  0
    2.9021   -1.0579    0.0000 C   0  0  1  0  0  0  0  0  0  0  0  0
    4.3547   -1.3623    0.0000 C   0  0  0  0  0  0  0  0  0  0  0  0
    6.8187    1.4407    0.0000 C   0  0  0  0  0  0  0  0  0  0  0  0
    2.0000   -0.5371    0.0000 C   0  0  0  0  0  0  0  0  0  0  0  0
    3.7841    0.5113    0.0000 C   0  0  0  0  0  0  0  0  0  0  0  0
    2.9180    1.0114    0.0000 C   0  0  0  0  0  0  0  0  0  0  0  0
    2.9059   -2.0579    0.0000 C   0  0  0  0  0  0  0  0  0  0  0  0
    5.3353   -1.5585    0.0000 C   0  0  0  0  0  0  0  0  0  0  0  0
    5.8714    1.1204    0.0000 C   0  0  0  0  0  0  0  0  0  0  0  0
    4.6501    2.0114    0.0000 C   0  0  0  0  0  0  0  0  0  0  0  0
    2.9180    2.0114    0.0000 C   0  0  0  0  0  0  0  0  0  0  0  0
    5.9955   -0.8075    0.0000 C   0  0  0  0  0  0  0  0  0  0  0  0
    7.8165    1.3742    0.0000 C   0  0  0  0  0  0  0  0  0  0  0  0
    7.2600    0.5433    0.0000 C   0  0  0  0  0  0  0  0  0  0  0  0
    5.3871    2.6784    0.0000 C   0  0  0  0  0  0  0  0  0  0  0  0
    6.3850    2.7427    0.0000 C   0  0  0  0  0  0  0  0  0  0  0  0
    5.6537   -2.5503    0.0000 C   0  0  0  0  0  0  0  0  0  0  0  0
    4.9820    3.5862    0.0000 C   0  0  0  0  0  0  0  0  0  0  0  0
    7.0199   -0.9961    0.0000 C   0  0  0  0  0  0  0  0  0  0  0  0
    6.6734   -2.7626    0.0000 C   0  0  0  0  0  0  0  0  0  0  0  0
    7.3612   -1.9802    0.0000 C   0  0  0  0  0  0  0  0  0  0  0  0
    3.4408   -1.3648    0.0000 H   0  0  0  0  0  0  0  0  0  0  0  0
    3.7674   -1.5609    0.0000 H   0  0  0  0  0  0  0  0  0  0  0  0
    4.3945   -1.9810    0.0000 H   0  0  0  0  0  0  0  0  0  0  0  0
    1.3900   -0.4263    0.0000 H   0  0  0  0  0  0  0  0  0  0  0  0
    1.7864   -1.1192    0.0000 H   0  0  0  0  0  0  0  0  0  0  0  0
    2.9083   -2.6779    0.0000 H   0  0  0  0  0  0  0  0  0  0  0  0
    5.7778    1.7333    0.0000 H   0  0  0  0  0  0  0  0  0  0  0  0
    5.2516    1.1347    0.0000 H   0  0  0  0  0  0  0  0  0  0  0  0
    7.8432    2.5531    0.0000 H   0  0  0  0  0  0  0  0  0  0  0  0
    2.3811    2.3213    0.0000 H   0  0  0  0  0  0  0  0  0  0  0  0
    7.7752    0.7555    0.0000 H   0  0  0  0  0  0  0  0  0  0  0  0
    8.4351    1.3329    0.0000 H   0  0  0  0  0  0  0  0  0  0  0  0
    7.8578    1.9928    0.0000 H   0  0  0  0  0  0  0  0  0  0  0  0
    6.7036    0.2698    0.0000 H   0  0  0  0  0  0  0  0  0  0  0  0
    7.5335   -0.0130    0.0000 H   0  0  0  0  0  0  0  0  0  0  0  0
    7.8163    0.8169    0.0000 H   0  0  0  0  0  0  0  0  0  0  0  0
    5.2390   -3.0112    0.0000 H   0  0  0  0  0  0  0  0  0  0  0  0
    5.2920    4.1232    0.0000 H   0  0  0  0  0  0  0  0  0  0  0  0
    7.4238   -0.5257    0.0000 H   0  0  0  0  0  0  0  0  0  0  0  0
    7.9696   -2.0996    0.0000 H   0  0  0  0  0  0  0  0  0  0  0  0
  1 18  1  0  0  0  0
  2 18  1  0  0  0  0
  3 31  1  0  0  0  0
  4 15  1  0  0  0  0
  4 17  1  0  0  0  0
  5 20  1  0  0  0  0
  5 23  1  0  0  0  0
  6 27  2  0  0  0  0
  7 12  1  0  0  0  0
  7 13  1  0  0  0  0
  7 16  1  0  0  0  0
  8 14  1  0  0  0  0
  8 27  1  0  0  0  0
  8 41  1  0  0  0  0
  9 11  1  0  0  0  0
  9 21  1  0  0  0  0
  9 22  1  0  0  0  0
 10 16  2  0  0  0  0
 10 21  1  0  0  0  0
 11 29  2  0  0  0  0
 12 15  1  0  0  0  0
 12 18  1  6  0  0  0
 12 33  1  0  0  0  0
 13 19  1  0  0  0  0
 13 34  1  0  0  0  0
 13 35  1  0  0  0  0
 14 20  1  0  0  0  0
 14 24  1  0  0  0  0
 14 25  1  0  0  0  0
 15 36  1  0  0  0  0
 15 37  1  0  0  0  0
 16 17  1  0  0  0  0
 17 22  2  0  0  0  0
 18 38  1  0  0  0  0
 19 23  2  0  0  0  0
 19 28  1  0  0  0  0
 20 39  1  0  0  0  0
 20 40  1  0  0  0  0
 21 26  2  0  0  0  0
 22 42  1  0  0  0  0
 23 30  1  0  0  0  0
 24 43  1  0  0  0  0
 24 44  1  0  0  0  0
 24 45  1  0  0  0  0
 25 46  1  0  0  0  0
 25 47  1  0  0  0  0
 25 48  1  0  0  0  0
 26 27  1  0  0  0  0
 26 29  1  0  0  0  0
 28 31  2  0  0  0  0
 28 49  1  0  0  0  0
 29 50  1  0  0  0  0
 30 32  2  0  0  0  0
 30 51  1  0  0  0  0
 31 32  1  0  0  0  0
 32 52  1  0  0  0  0
M  END
> <PUBCHEM_COMPOUND_CID>
156024486

> <PUBCHEM_COMPOUND_CANONICALIZED>
1

> <PUBCHEM_CACTVS_COMPLEXITY>
716

> <PUBCHEM_CACTVS_HBOND_ACCEPTOR>
9

> <PUBCHEM_CACTVS_HBOND_DONOR>
1

> <PUBCHEM_CACTVS_ROTATABLE_BOND>
1

> <PUBCHEM_CACTVS_SUBSKEYS>
AAADceB7sYAAAAAAAAAAAAAAAAAAAWAAAAA8WIAAAAAAAFgB8AAAHwAYAAAADKzhmx4/tp/IFACqAjN3dASSjCs14KAd2CEvTNiOLurE+VuHvKju3BPYqOeQwCAOAAAAAAAIAAAAAAAAABAAAAAAAAAAAA==

> <PUBCHEM_IUPAC_OPENEYE_NAME>
(18S)-18-(difluoromethyl)-13-fluoro-7,7-dimethyl-9,20-dioxa-1,2,6,17,23-pentazapentacyclo[19.3.1.04,24.010,15.017,22]pentacosa-2,4(24),10(15),11,13,21(25),22-heptaen-5-one

> <PUBCHEM_IUPAC_CAS_NAME>
(18S)-18-(difluoromethyl)-13-fluoro-7,7-dimethyl-9,20-dioxa-1,2,6,17,23-pentazapentacyclo[19.3.1.04,24.010,15.017,22]pentacosa-2,4(24),10(15),11,13,21(25),22-heptaen-5-one

> <PUBCHEM_IUPAC_NAME_MARKUP>
(18<I>S</I>)-18-(difluoromethyl)-13-fluoro-7,7-dimethyl-9,20-dioxa-1,2,6,17,23-pentazapentacyclo[19.3.1.0<SUP>4,24</SUP>.0<SUP>10,15</SUP>.0<SUP>17,22</SUP>]pentacosa-2,4(24),10(15),11,13,21(25),22-heptaen-5-one

> <PUBCHEM_IUPAC_NAME>
(18S)-18-(difluoromethyl)-13-fluoro-7,7-dimethyl-9,20-dioxa-1,2,6,17,23-pentazapentacyclo[19.3.1.04,24.010,15.017,22]pentacosa-2,4(24),10(15),11,13,21(25),22-heptaen-5-one

> <PUBCHEM_IUPAC_SYSTEMATIC_NAME>
(18S)-18-[bis(fluoranyl)methyl]-13-fluoranyl-7,7-dimethyl-9,20-dioxa-1,2,6,17,23-pentazapentacyclo[19.3.1.04,24.010,15.017,22]pentacosa-2,4(24),10(15),11,13,21(25),22-heptaen-5-one

> <PUBCHEM_IUPAC_TRADITIONAL_NAME>
(18S)-18-(difluoromethyl)-13-fluoro-7,7-dimethyl-9,20-dioxa-1,2,6,17,23-pentazapentacyclo[19.3.1.04,24.010,15.017,22]pentacosa-2,4(24),10(15),11,13,21(25),22-heptaen-5-one

> <PUBCHEM_IUPAC_INCHI>
InChI=1S/C21H20F3N5O3/c1-21(2)10-32-15-4-3-12(22)5-11(15)7-28-14(17(23)24)9-31-16-8-29-18(26-19(16)28)13(6-25-29)20(30)27-21/h3-6,8,14,17H,7,9-10H2,1-2H3,(H,27,30)/t14-/m0/s1

> <PUBCHEM_IUPAC_INCHIKEY>
ILAMRXVQSGVCJX-AWEZNQCLSA-N

> <PUBCHEM_XLOGP3_AA>
2.7

> <PUBCHEM_EXACT_MASS>
447.15182400

> <PUBCHEM_MOLECULAR_FORMULA>
C21H20F3N5O3

> <PUBCHEM_MOLECULAR_WEIGHT>
447.4

> <PUBCHEM_OPENEYE_CAN_SMILES>
CC1(COC2=C(CN3C(COC4=CN5C(=C(C=N5)C(=O)N1)N=C43)C(F)F)C=C(C=C2)F)C

> <PUBCHEM_OPENEYE_ISO_SMILES>
CC1(COC2=C(CN3[C@@H](COC4=CN5C(=C(C=N5)C(=O)N1)N=C43)C(F)F)C=C(C=C2)F)C

> <PUBCHEM_CACTVS_TPSA>
81

> <PUBCHEM_MONOISOTOPIC_WEIGHT>
447.15182400

> <PUBCHEM_TOTAL_CHARGE>
0

> <PUBCHEM_HEAVY_ATOM_COUNT>
32

> <PUBCHEM_ATOM_DEF_STEREO_COUNT>
1

> <PUBCHEM_ATOM_UDEF_STEREO_COUNT>
0

> <PUBCHEM_BOND_DEF_STEREO_COUNT>
0

> <PUBCHEM_BOND_UDEF_STEREO_COUNT>
0

> <PUBCHEM_ISOTOPIC_ATOM_COUNT>
0

> <PUBCHEM_COMPONENT_COUNT>
1

> <PUBCHEM_CACTVS_TAUTO_COUNT>
-1

> <PUBCHEM_COORDINATE_TYPE>
1
5
255

> <PUBCHEM_BONDANNOTATIONS>
10  16  8
10  21  8
11  29  8
12  18  6
16  17  8
17  22  8
19  23  8
19  28  8
21  26  8
23  30  8
26  29  8
28  31  8
30  32  8
31  32  8
9  11  8
9  21  8
9  22  8

$$$$
91667513
  -OEChem-11282412102D

 57 60  0     0  0  0  0  0  0999 V2000
   10.3312    3.5000    0.0000 O   0  0  0  0  0  0  0  0  0  0  0  0
    3.4030   -0.5000    0.0000 O   0  0  0  0  0  0  0  0  0  0  0  0
    5.1350   -3.5000    0.0000 O   0  0  0  0  0  0  0  0  0  0  0  0
    8.5991    3.5000    0.0000 N   0  0  0  0  0  0  0  0  0  0  0  0
    6.0010    1.0000    0.0000 N   0  0  0  0  0  0  0  0  0  0  0  0
    2.5369    1.0000    0.0000 N   0  0  0  0  0  0  0  0  0  0  0  0
    6.8671    2.5000    0.0000 C   0  0  0  0  0  0  0  0  0  0  0  0
    6.8671    3.5000    0.0000 C   0  0  0  0  0  0  0  0  0  0  0  0
    7.7331    2.0000    0.0000 C   0  0  0  0  0  0  0  0  0  0  0  0
    7.7331    4.0000    0.0000 C   0  0  0  0  0  0  0  0  0  0  0  0
    8.5991    2.5000    0.0000 C   0  0  0  0  0  0  0  0  0  0  0  0
    6.0010    2.0000    0.0000 C   0  0  0  0  0  0  0  0  0  0  0  0
    9.4651    4.0000    0.0000 C   0  0  0  0  0  0  0  0  0  0  0  0
    5.1350    2.5000    0.0000 C   0  0  0  0  0  0  0  0  0  0  0  0
    5.1350    0.5000    0.0000 C   0  0  0  0  0  0  0  0  0  0  0  0
    4.2690    2.0000    0.0000 C   0  0  0  0  0  0  0  0  0  0  0  0
    4.2690    1.0000    0.0000 C   0  0  0  0  0  0  0  0  0  0  0  0
    9.4651    5.0000    0.0000 C   0  0  0  0  0  0  0  0  0  0  0  0
    5.1350   -0.5000    0.0000 C   0  0  0  0  0  0  0  0  0  0  0  0
    3.4030    0.5000    0.0000 C   0  0  0  0  0  0  0  0  0  0  0  0
    4.2690   -1.0000    0.0000 C   0  0  0  0  0  0  0  0  0  0  0  0
    6.0010   -1.0000    0.0000 C   0  0  0  0  0  0  0  0  0  0  0  0
   10.3312    5.5000    0.0000 C   0  0  0  0  0  0  0  0  0  0  0  0
    4.2690   -2.0000    0.0000 C   0  0  0  0  0  0  0  0  0  0  0  0
    6.0010   -2.0000    0.0000 C   0  0  0  0  0  0  0  0  0  0  0  0
    5.1350   -2.5000    0.0000 C   0  0  0  0  0  0  0  0  0  0  0  0
    6.0010   -4.0000    0.0000 C   0  0  0  0  0  0  0  0  0  0  0  0
    6.8671   -3.5000    0.0000 C   0  0  0  0  0  0  0  0  0  0  0  0
    6.0010   -5.0000    0.0000 C   0  0  0  0  0  0  0  0  0  0  0  0
    7.7331   -4.0000    0.0000 C   0  0  0  0  0  0  0  0  0  0  0  0
    6.8671   -5.5000    0.0000 C   0  0  0  0  0  0  0  0  0  0  0  0
    7.7331   -5.0000    0.0000 C   0  0  0  0  0  0  0  0  0  0  0  0
    6.3301    2.8100    0.0000 H   0  0  0  0  0  0  0  0  0  0  0  0
    6.6550    4.0826    0.0000 H   0  0  0  0  0  0  0  0  0  0  0  0
    6.2565    3.3923    0.0000 H   0  0  0  0  0  0  0  0  0  0  0  0
    7.3346    1.5250    0.0000 H   0  0  0  0  0  0  0  0  0  0  0  0
    8.1316    1.5250    0.0000 H   0  0  0  0  0  0  0  0  0  0  0  0
    8.1316    4.4750    0.0000 H   0  0  0  0  0  0  0  0  0  0  0  0
    7.3346    4.4750    0.0000 H   0  0  0  0  0  0  0  0  0  0  0  0
    8.8112    1.9174    0.0000 H   0  0  0  0  0  0  0  0  0  0  0  0
    9.2097    2.6077    0.0000 H   0  0  0  0  0  0  0  0  0  0  0  0
    5.1350    3.1200    0.0000 H   0  0  0  0  0  0  0  0  0  0  0  0
    3.7320    2.3100    0.0000 H   0  0  0  0  0  0  0  0  0  0  0  0
    8.9282    5.3100    0.0000 H   0  0  0  0  0  0  0  0  0  0  0  0
    3.7320   -0.6900    0.0000 H   0  0  0  0  0  0  0  0  0  0  0  0
    6.5380   -0.6900    0.0000 H   0  0  0  0  0  0  0  0  0  0  0  0
   10.8681    5.1900    0.0000 H   0  0  0  0  0  0  0  0  0  0  0  0
   10.3312    6.1200    0.0000 H   0  0  0  0  0  0  0  0  0  0  0  0
    3.7320   -2.3100    0.0000 H   0  0  0  0  0  0  0  0  0  0  0  0
    6.5380   -2.3100    0.0000 H   0  0  0  0  0  0  0  0  0  0  0  0
    2.0000    0.6900    0.0000 H   0  0  0  0  0  0  0  0  0  0  0  0
    2.5369    1.6200    0.0000 H   0  0  0  0  0  0  0  0  0  0  0  0
    6.8671   -2.8800    0.0000 H   0  0  0  0  0  0  0  0  0  0  0  0
    5.4641   -5.3100    0.0000 H   0  0  0  0  0  0  0  0  0  0  0  0
    8.2700   -3.6900    0.0000 H   0  0  0  0  0  0  0  0  0  0  0  0
    6.8671   -6.1200    0.0000 H   0  0  0  0  0  0  0  0  0  0  0  0
    8.2700   -5.3100    0.0000 H   0  0  0  0  0  0  0  0  0  0  0  0
  1 13  2  0  0  0  0
  2 20  2  0  0  0  0
  3 26  1  0  0  0  0
  3 27  1  0  0  0  0
  4 10  1  0  0  0  0
  4 11  1  0  0  0  0
  4 13  1  0  0  0  0
  5 12  2  0  0  0  0
  5 15  1  0  0  0  0
  6 20  1  0  0  0  0
  6 51  1  0  0  0  0
  6 52  1  0  0  0  0
  7  8  1  0  0  0  0
  7  9  1  0  0  0  0
  7 12  1  0  0  0  0
  7 33  1  0  0  0  0
  8 10  1  0  0  0  0
  8 34  1  0  0  0  0
  8 35  1  0  0  0  0
  9 11  1  0  0  0  0
  9 36  1  0  0  0  0
  9 37  1  0  0  0  0
 10 38  1  0  0  0  0
 10 39  1  0  0  0  0
 11 40  1  0  0  0  0
 11 41  1  0  0  0  0
 12 14  1  0  0  0  0
 13 18  1  0  0  0  0
 14 16  2  0  0  0  0
 14 42  1  0  0  0  0
 15 17  2  0  0  0  0
 15 19  1  0  0  0  0
 16 17  1  0  0  0  0
 16 43  1  0  0  0  0
 17 20  1  0  0  0  0
 18 23  2  0  0  0  0
 18 44  1  0  0  0  0
 19 21  2  0  0  0  0
 19 22  1  0  0  0  0
 21 24  1  0  0  0  0
 21 45  1  0  0  0  0
 22 25  2  0  0  0  0
 22 46  1  0  0  0  0
 23 47  1  0  0  0  0
 23 48  1  0  0  0  0
 24 26  2  0  0  0  0
 24 49  1  0  0  0  0
 25 26  1  0  0  0  0
 25 50  1  0  0  0  0
 27 28  2  0  0  0  0
 27 29  1  0  0  0  0
 28 30  1  0  0  0  0
 28 53  1  0  0  0  0
 29 31  2  0  0  0  0
 29 54  1  0  0  0  0
 30 32  2  0  0  0  0
 30 55  1  0  0  0  0
 31 32  1  0  0  0  0
 31 56  1  0  0  0  0
 32 57  1  0  0  0  0
M  END
> <PUBCHEM_COMPOUND_CID>
91667513

> <PUBCHEM_COMPOUND_CANONICALIZED>
1

> <PUBCHEM_CACTVS_COMPLEXITY>
647

> <PUBCHEM_CACTVS_HBOND_ACCEPTOR>
4

> <PUBCHEM_CACTVS_HBOND_DONOR>
1

> <PUBCHEM_CACTVS_ROTATABLE_BOND>
6

> <PUBCHEM_CACTVS_SUBSKEYS>
AAADceB7MAAAAAAAAAAAAAAAAAAAAAAAAAA8eIEAAAAAAAAB0AAAHgAQAAAADQzBngQwhpNIFACoAyVyVACCiCAlIiAImCE+bNgMJvrE9ZuGOajkxhHI6ceY2eOeIAAAAAAAAABAAAAAAAAAAAAAAAAAAA==

> <PUBCHEM_IUPAC_OPENEYE_NAME>
2-(4-phenoxyphenyl)-6-(1-prop-2-enoyl-4-piperidyl)pyridine-3-carboxamide

> <PUBCHEM_IUPAC_CAS_NAME>
6-[1-(1-oxoprop-2-enyl)-4-piperidinyl]-2-(4-phenoxyphenyl)-3-pyridinecarboxamide

> <PUBCHEM_IUPAC_NAME_MARKUP>
2-(4-phenoxyphenyl)-6-(1-prop-2-enoylpiperidin-4-yl)pyridine-3-carboxamide

> <PUBCHEM_IUPAC_NAME>
2-(4-phenoxyphenyl)-6-(1-prop-2-enoylpiperidin-4-yl)pyridine-3-carboxamide

> <PUBCHEM_IUPAC_SYSTEMATIC_NAME>
2-(4-phenoxyphenyl)-6-(1-prop-2-enoylpiperidin-4-yl)pyridine-3-carboxamide

> <PUBCHEM_IUPAC_TRADITIONAL_NAME>
6-(1-acryloyl-4-piperidyl)-2-(4-phenoxyphenyl)nicotinamide

> <PUBCHEM_IUPAC_INCHI>
InChI=1S/C26H25N3O3/c1-2-24(30)29-16-14-18(15-17-29)23-13-12-22(26(27)31)25(28-23)19-8-10-21(11-9-19)32-20-6-4-3-5-7-20/h2-13,18H,1,14-17H2,(H2,27,31)

> <PUBCHEM_IUPAC_INCHIKEY>
MZPVEMOYADUARK-UHFFFAOYSA-N

> <PUBCHEM_XLOGP3_AA>
3.6

> <PUBCHEM_EXACT_MASS>
427.18959167

> <PUBCHEM_MOLECULAR_FORMULA>
C26H25N3O3

> <PUBCHEM_MOLECULAR_WEIGHT>
427.5

> <PUBCHEM_OPENEYE_CAN_SMILES>
C=CC(=O)N1CCC(CC1)C2=NC(=C(C=C2)C(=O)N)C3=CC=C(C=C3)OC4=CC=CC=C4

> <PUBCHEM_OPENEYE_ISO_SMILES>
C=CC(=O)N1CCC(CC1)C2=NC(=C(C=C2)C(=O)N)C3=CC=C(C=C3)OC4=CC=CC=C4

> <PUBCHEM_CACTVS_TPSA>
85.5

> <PUBCHEM_MONOISOTOPIC_WEIGHT>
427.18959167

> <PUBCHEM_TOTAL_CHARGE>
0

> <PUBCHEM_HEAVY_ATOM_COUNT>
32

> <PUBCHEM_ATOM_DEF_STEREO_COUNT>
0

> <PUBCHEM_ATOM_UDEF_STEREO_COUNT>
0

> <PUBCHEM_BOND_DEF_STEREO_COUNT>
0

> <PUBCHEM_BOND_UDEF_STEREO_COUNT>
0

> <PUBCHEM_ISOTOPIC_ATOM_COUNT>
0

> <PUBCHEM_COMPONENT_COUNT>
1

> <PUBCHEM_CACTVS_TAUTO_COUNT>
-1

> <PUBCHEM_COORDINATE_TYPE>
1
5
255

> <PUBCHEM_BONDANNOTATIONS>
12  14  8
14  16  8
15  17  8
16  17  8
19  21  8
19  22  8
21  24  8
22  25  8
24  26  8
25  26  8
27  28  8
27  29  8
28  30  8
29  31  8
30  32  8
31  32  8
5  12  8
5  15  8

$$$$
46944259
  -OEChem-11282412102D

 49 52  0     1  0  0  0  0  0999 V2000
    2.8660   -3.6206    0.0000 Cl  0  0  0  0  0  0  0  0  0  0  0  0
    4.5981   -0.6206    0.0000 Cl  0  0  0  0  0  0  0  0  0  0  0  0
    5.4641   -2.1206    0.0000 O   0  0  0  0  0  0  0  0  0  0  0  0
   10.6667    4.0546    0.0000 O   0  0  0  0  0  0  0  0  0  0  0  0
    9.0084   -3.9253    0.0000 N   0  0  0  0  0  0  0  0  0  0  0  0
    9.5920   -3.1206    0.0000 N   0  0  0  0  0  0  0  0  0  0  0  0
   10.6110    1.4094    0.0000 N   0  0  0  0  0  0  0  0  0  0  0  0
   11.5615    1.0988    0.0000 N   0  0  0  0  0  0  0  0  0  0  0  0
    2.0000   -1.1206    0.0000 N   0  0  0  0  0  0  0  0  0  0  0  0
    8.0622   -2.6206    0.0000 C   0  0  0  0  0  0  0  0  0  0  0  0
    4.5981   -2.6206    0.0000 C   0  0  1  0  0  0  0  0  0  0  0  0
    8.0622   -3.6206    0.0000 C   0  0  0  0  0  0  0  0  0  0  0  0
    6.3301   -2.6206    0.0000 C   0  0  0  0  0  0  0  0  0  0  0  0
    9.0084   -2.3159    0.0000 C   0  0  0  0  0  0  0  0  0  0  0  0
    7.1962   -2.1206    0.0000 C   0  0  0  0  0  0  0  0  0  0  0  0
    3.7320   -2.1206    0.0000 C   0  0  0  0  0  0  0  0  0  0  0  0
    7.1962   -4.1206    0.0000 C   0  0  0  0  0  0  0  0  0  0  0  0
    6.3301   -3.6206    0.0000 C   0  0  0  0  0  0  0  0  0  0  0  0
    4.5981   -3.6206    0.0000 C   0  0  0  0  0  0  0  0  0  0  0  0
    9.3191   -1.3653    0.0000 C   0  0  0  0  0  0  0  0  0  0  0  0
   10.6082   -0.2086    0.0000 C   0  0  0  0  0  0  0  0  0  0  0  0
   10.2976   -1.1591    0.0000 C   0  0  0  0  0  0  0  0  0  0  0  0
   10.3037    2.3610    0.0000 C   0  0  0  0  0  0  0  0  0  0  0  0
   10.0218    0.6014    0.0000 C   0  0  0  0  0  0  0  0  0  0  0  0
    2.8660   -2.6206    0.0000 C   0  0  0  0  0  0  0  0  0  0  0  0
    3.7320   -1.1206    0.0000 C   0  0  0  0  0  0  0  0  0  0  0  0
   11.5598    0.0988    0.0000 C   0  0  0  0  0  0  0  0  0  0  0  0
   10.9741    3.1030    0.0000 C   0  0  0  0  0  0  0  0  0  0  0  0
    2.0000   -2.1206    0.0000 C   0  0  0  0  0  0  0  0  0  0  0  0
    2.8660   -0.6206    0.0000 C   0  0  0  0  0  0  0  0  0  0  0  0
    4.5981   -2.0006    0.0000 H   0  0  0  0  0  0  0  0  0  0  0  0
    7.1962   -1.5006    0.0000 H   0  0  0  0  0  0  0  0  0  0  0  0
    7.1962   -4.7406    0.0000 H   0  0  0  0  0  0  0  0  0  0  0  0
    5.7932   -3.9306    0.0000 H   0  0  0  0  0  0  0  0  0  0  0  0
    9.2010   -4.5146    0.0000 H   0  0  0  0  0  0  0  0  0  0  0  0
    3.9781   -3.6206    0.0000 H   0  0  0  0  0  0  0  0  0  0  0  0
    4.5981   -4.2406    0.0000 H   0  0  0  0  0  0  0  0  0  0  0  0
    5.2181   -3.6206    0.0000 H   0  0  0  0  0  0  0  0  0  0  0  0
    8.9050   -0.9039    0.0000 H   0  0  0  0  0  0  0  0  0  0  0  0
   10.7116   -1.6206    0.0000 H   0  0  0  0  0  0  0  0  0  0  0  0
    9.9228    2.8503    0.0000 H   0  0  0  0  0  0  0  0  0  0  0  0
    9.7557    2.0709    0.0000 H   0  0  0  0  0  0  0  0  0  0  0  0
    9.4018    0.6025    0.0000 H   0  0  0  0  0  0  0  0  0  0  0  0
   12.0608   -0.2665    0.0000 H   0  0  0  0  0  0  0  0  0  0  0  0
   11.3549    2.6138    0.0000 H   0  0  0  0  0  0  0  0  0  0  0  0
   11.5220    3.3931    0.0000 H   0  0  0  0  0  0  0  0  0  0  0  0
    1.4631   -2.4306    0.0000 H   0  0  0  0  0  0  0  0  0  0  0  0
    2.8660   -0.0006    0.0000 H   0  0  0  0  0  0  0  0  0  0  0  0
   11.0824    4.5146    0.0000 H   0  0  0  0  0  0  0  0  0  0  0  0
  1 25  1  0  0  0  0
  2 26  1  0  0  0  0
 11  3  1  6  0  0  0
  3 13  1  0  0  0  0
  4 28  1  0  0  0  0
  4 49  1  0  0  0  0
  5  6  1  0  0  0  0
  5 12  1  0  0  0  0
  5 35  1  0  0  0  0
  6 14  2  0  0  0  0
  7  8  1  0  0  0  0
  7 23  1  0  0  0  0
  7 24  1  0  0  0  0
  8 27  2  0  0  0  0
  9 29  2  0  0  0  0
  9 30  1  0  0  0  0
 10 12  2  0  0  0  0
 10 14  1  0  0  0  0
 10 15  1  0  0  0  0
 11 16  1  0  0  0  0
 11 19  1  0  0  0  0
 11 31  1  0  0  0  0
 12 17  1  0  0  0  0
 13 15  2  0  0  0  0
 13 18  1  0  0  0  0
 14 20  1  0  0  0  0
 15 32  1  0  0  0  0
 16 25  2  0  0  0  0
 16 26  1  0  0  0  0
 17 18  2  0  0  0  0
 17 33  1  0  0  0  0
 18 34  1  0  0  0  0
 19 36  1  0  0  0  0
 19 37  1  0  0  0  0
 19 38  1  0  0  0  0
 20 22  2  0  0  0  0
 20 39  1  0  0  0  0
 21 22  1  0  0  0  0
 21 24  2  0  0  0  0
 21 27  1  0  0  0  0
 22 40  1  0  0  0  0
 23 28  1  0  0  0  0
 23 41  1  0  0  0  0
 23 42  1  0  0  0  0
 24 43  1  0  0  0  0
 25 29  1  0  0  0  0
 26 30  2  0  0  0  0
 27 44  1  0  0  0  0
 28 45  1  0  0  0  0
 28 46  1  0  0  0  0
 29 47  1  0  0  0  0
 30 48  1  0  0  0  0
M  END
> <PUBCHEM_COMPOUND_CID>
46944259

> <PUBCHEM_COMPOUND_CANONICALIZED>
1

> <PUBCHEM_CACTVS_COMPLEXITY>
576

> <PUBCHEM_CACTVS_HBOND_ACCEPTOR>
5

> <PUBCHEM_CACTVS_HBOND_DONOR>
2

> <PUBCHEM_CACTVS_ROTATABLE_BOND>
7

> <PUBCHEM_CACTVS_SUBSKEYS>
AAADceB7sAAGAAAAAAAAAAAAAAAAAWLAAAA8QAAAAAAAAFgB/gAAHgIYCAAADB7hniY+xvJrFgCiAzRnRACSjCAxpyAY+SA+bpgONuLF89vGvCjk2BHY6AewwLAOAEABAAACAAAAgAIAAAQAAAAAAAAAAA==

> <PUBCHEM_IUPAC_OPENEYE_NAME>
2-[4-[(E)-2-[5-[(1R)-1-(3,5-dichloro-4-pyridyl)ethoxy]-1H-indazol-3-yl]vinyl]pyrazol-1-yl]ethanol

> <PUBCHEM_IUPAC_CAS_NAME>
2-[4-[(E)-2-[5-[(1R)-1-(3,5-dichloro-4-pyridinyl)ethoxy]-1H-indazol-3-yl]ethenyl]-1-pyrazolyl]ethanol

> <PUBCHEM_IUPAC_NAME_MARKUP>
2-[4-[(<I>E</I>)-2-[5-[(1<I>R</I>)-1-(3,5-dichloropyridin-4-yl)ethoxy]-1<I>H</I>-indazol-3-yl]ethenyl]pyrazol-1-yl]ethanol

> <PUBCHEM_IUPAC_NAME>
2-[4-[(E)-2-[5-[(1R)-1-(3,5-dichloropyridin-4-yl)ethoxy]-1H-indazol-3-yl]ethenyl]pyrazol-1-yl]ethanol

> <PUBCHEM_IUPAC_SYSTEMATIC_NAME>
2-[4-[(E)-2-[5-[(1R)-1-[3,5-bis(chloranyl)pyridin-4-yl]ethoxy]-1H-indazol-3-yl]ethenyl]pyrazol-1-yl]ethanol

> <PUBCHEM_IUPAC_TRADITIONAL_NAME>
2-[4-[(E)-2-[5-[(1R)-1-(3,5-dichloro-4-pyridyl)ethoxy]-1H-indazol-3-yl]vinyl]pyrazol-1-yl]ethanol

> <PUBCHEM_IUPAC_INCHI>
InChI=1S/C21H19Cl2N5O2/c1-13(21-17(22)10-24-11-18(21)23)30-15-3-5-20-16(8-15)19(26-27-20)4-2-14-9-25-28(12-14)6-7-29/h2-5,8-13,29H,6-7H2,1H3,(H,26,27)/b4-2+/t13-/m1/s1

> <PUBCHEM_IUPAC_INCHIKEY>
GKJCVYLDJWTWQU-CXLRFSCWSA-N

> <PUBCHEM_XLOGP3_AA>
3.5

> <PUBCHEM_EXACT_MASS>
443.0915803

> <PUBCHEM_MOLECULAR_FORMULA>
C21H19Cl2N5O2

> <PUBCHEM_MOLECULAR_WEIGHT>
444.3

> <PUBCHEM_OPENEYE_CAN_SMILES>
CC(C1=C(C=NC=C1Cl)Cl)OC2=CC3=C(C=C2)NN=C3C=CC4=CN(N=C4)CCO

> <PUBCHEM_OPENEYE_ISO_SMILES>
C[C@H](C1=C(C=NC=C1Cl)Cl)OC2=CC3=C(C=C2)NN=C3/C=C/C4=CN(N=C4)CCO

> <PUBCHEM_CACTVS_TPSA>
88.8

> <PUBCHEM_MONOISOTOPIC_WEIGHT>
443.0915803

> <PUBCHEM_TOTAL_CHARGE>
0

> <PUBCHEM_HEAVY_ATOM_COUNT>
30

> <PUBCHEM_ATOM_DEF_STEREO_COUNT>
1

> <PUBCHEM_ATOM_UDEF_STEREO_COUNT>
0

> <PUBCHEM_BOND_DEF_STEREO_COUNT>
1

> <PUBCHEM_BOND_UDEF_STEREO_COUNT>
0

> <PUBCHEM_ISOTOPIC_ATOM_COUNT>
0

> <PUBCHEM_COMPONENT_COUNT>
1

> <PUBCHEM_CACTVS_TAUTO_COUNT>
-1

> <PUBCHEM_COORDINATE_TYPE>
1
5
255

> <PUBCHEM_BONDANNOTATIONS>
10  12  8
10  14  8
10  15  8
12  17  8
13  15  8
13  18  8
16  25  8
16  26  8
17  18  8
21  24  8
21  27  8
25  29  8
26  30  8
11  3  6
5  12  8
5  6  8
6  14  8
7  24  8
7  8  8
8  27  8
9  29  8
9  30  8

$$$$
54760385
  -OEChem-11282412102D

 62 66  0     0  0  0  0  0  0999 V2000
    4.5981   -0.9507    0.0000 N   0  0  0  0  0  0  0  0  0  0  0  0
    2.8660   -1.9507    0.0000 N   0  0  0  0  0  0  0  0  0  0  0  0
   11.6065    0.8540    0.0000 N   0  0  0  0  0  0  0  0  0  0  0  0
    8.0622    1.0493    0.0000 N   0  0  0  0  0  0  0  0  0  0  0  0
   11.6065   -0.7555    0.0000 N   0  0  0  0  0  0  0  0  0  0  0  0
    9.7942    1.0493    0.0000 N   0  0  0  0  0  0  0  0  0  0  0  0
   13.1901    0.0493    0.0000 N   0  0  0  0  0  0  0  0  0  0  0  0
    8.9282   -0.4507    0.0000 N   0  0  0  0  0  0  0  0  0  0  0  0
   13.6901   -2.5488    0.0000 N   0  0  0  0  0  0  0  0  0  0  0  0
    3.7320   -0.4507    0.0000 C   0  0  0  0  0  0  0  0  0  0  0  0
    4.5981   -1.9507    0.0000 C   0  0  0  0  0  0  0  0  0  0  0  0
    2.8660   -0.9507    0.0000 C   0  0  0  0  0  0  0  0  0  0  0  0
    3.7320   -2.4507    0.0000 C   0  0  0  0  0  0  0  0  0  0  0  0
    5.4641   -0.4507    0.0000 C   0  0  0  0  0  0  0  0  0  0  0  0
    2.0000   -2.4507    0.0000 C   0  0  0  0  0  0  0  0  0  0  0  0
    6.3301   -0.9507    0.0000 C   0  0  0  0  0  0  0  0  0  0  0  0
    5.4641    0.5493    0.0000 C   0  0  0  0  0  0  0  0  0  0  0  0
   11.9171    1.8045    0.0000 C   0  0  0  0  0  0  0  0  0  0  0  0
   10.6603    0.5493    0.0000 C   0  0  0  0  0  0  0  0  0  0  0  0
    7.1962    0.5493    0.0000 C   0  0  0  0  0  0  0  0  0  0  0  0
    7.1962   -0.4507    0.0000 C   0  0  0  0  0  0  0  0  0  0  0  0
    6.3301    1.0493    0.0000 C   0  0  0  0  0  0  0  0  0  0  0  0
   12.1901    0.0493    0.0000 C   0  0  0  0  0  0  0  0  0  0  0  0
   10.6603   -0.4507    0.0000 C   0  0  0  0  0  0  0  0  0  0  0  0
   11.2493    2.5488    0.0000 C   0  0  0  0  0  0  0  0  0  0  0  0
   12.8956    2.0107    0.0000 C   0  0  0  0  0  0  0  0  0  0  0  0
    8.9282    0.5493    0.0000 C   0  0  0  0  0  0  0  0  0  0  0  0
    9.7942   -0.9507    0.0000 C   0  0  0  0  0  0  0  0  0  0  0  0
   13.6901   -0.8168    0.0000 C   0  0  0  0  0  0  0  0  0  0  0  0
   14.6901   -0.8168    0.0000 C   0  0  0  0  0  0  0  0  0  0  0  0
   13.1901   -1.6828    0.0000 C   0  0  0  0  0  0  0  0  0  0  0  0
   15.1901   -1.6828    0.0000 C   0  0  0  0  0  0  0  0  0  0  0  0
   14.6901   -2.5488    0.0000 C   0  0  0  0  0  0  0  0  0  0  0  0
    4.1306    0.0242    0.0000 H   0  0  0  0  0  0  0  0  0  0  0  0
    3.3335    0.0242    0.0000 H   0  0  0  0  0  0  0  0  0  0  0  0
    4.8101   -2.5334    0.0000 H   0  0  0  0  0  0  0  0  0  0  0  0
    5.2087   -1.8431    0.0000 H   0  0  0  0  0  0  0  0  0  0  0  0
    2.6540   -0.3681    0.0000 H   0  0  0  0  0  0  0  0  0  0  0  0
    2.2554   -1.0584    0.0000 H   0  0  0  0  0  0  0  0  0  0  0  0
    3.3335   -2.9257    0.0000 H   0  0  0  0  0  0  0  0  0  0  0  0
    4.1306   -2.9257    0.0000 H   0  0  0  0  0  0  0  0  0  0  0  0
    1.6900   -1.9138    0.0000 H   0  0  0  0  0  0  0  0  0  0  0  0
    1.4631   -2.7607    0.0000 H   0  0  0  0  0  0  0  0  0  0  0  0
    2.3100   -2.9877    0.0000 H   0  0  0  0  0  0  0  0  0  0  0  0
   12.3312    1.3430    0.0000 H   0  0  0  0  0  0  0  0  0  0  0  0
    6.3301   -1.5707    0.0000 H   0  0  0  0  0  0  0  0  0  0  0  0
    4.9272    0.8593    0.0000 H   0  0  0  0  0  0  0  0  0  0  0  0
    7.7331   -0.7607    0.0000 H   0  0  0  0  0  0  0  0  0  0  0  0
    6.3301    1.6693    0.0000 H   0  0  0  0  0  0  0  0  0  0  0  0
   11.7108    2.9629    0.0000 H   0  0  0  0  0  0  0  0  0  0  0  0
   10.8352    3.0103    0.0000 H   0  0  0  0  0  0  0  0  0  0  0  0
   10.7878    2.1348    0.0000 H   0  0  0  0  0  0  0  0  0  0  0  0
   13.0235    1.4041    0.0000 H   0  0  0  0  0  0  0  0  0  0  0  0
   13.5023    2.1386    0.0000 H   0  0  0  0  0  0  0  0  0  0  0  0
   12.7678    2.6174    0.0000 H   0  0  0  0  0  0  0  0  0  0  0  0
    8.0622    1.6693    0.0000 H   0  0  0  0  0  0  0  0  0  0  0  0
   13.5001    0.5862    0.0000 H   0  0  0  0  0  0  0  0  0  0  0  0
    9.7942   -1.5707    0.0000 H   0  0  0  0  0  0  0  0  0  0  0  0
   15.0001   -0.2798    0.0000 H   0  0  0  0  0  0  0  0  0  0  0  0
   12.5701   -1.6828    0.0000 H   0  0  0  0  0  0  0  0  0  0  0  0
   15.8101   -1.6828    0.0000 H   0  0  0  0  0  0  0  0  0  0  0  0
   15.0001   -3.0858    0.0000 H   0  0  0  0  0  0  0  0  0  0  0  0
  1 10  1  0  0  0  0
  1 11  1  0  0  0  0
  1 14  1  0  0  0  0
  2 12  1  0  0  0  0
  2 13  1  0  0  0  0
  2 15  1  0  0  0  0
  3 18  1  0  0  0  0
  3 19  1  0  0  0  0
  3 23  1  0  0  0  0
  4 20  1  0  0  0  0
  4 27  1  0  0  0  0
  4 56  1  0  0  0  0
  5 23  2  0  0  0  0
  5 24  1  0  0  0  0
  6 19  2  0  0  0  0
  6 27  1  0  0  0  0
  7 23  1  0  0  0  0
  7 29  1  0  0  0  0
  7 57  1  0  0  0  0
  8 27  2  0  0  0  0
  8 28  1  0  0  0  0
  9 31  1  0  0  0  0
  9 33  2  0  0  0  0
 10 12  1  0  0  0  0
 10 34  1  0  0  0  0
 10 35  1  0  0  0  0
 11 13  1  0  0  0  0
 11 36  1  0  0  0  0
 11 37  1  0  0  0  0
 12 38  1  0  0  0  0
 12 39  1  0  0  0  0
 13 40  1  0  0  0  0
 13 41  1  0  0  0  0
 14 16  2  0  0  0  0
 14 17  1  0  0  0  0
 15 42  1  0  0  0  0
 15 43  1  0  0  0  0
 15 44  1  0  0  0  0
 16 21  1  0  0  0  0
 16 46  1  0  0  0  0
 17 22  2  0  0  0  0
 17 47  1  0  0  0  0
 18 25  1  0  0  0  0
 18 26  1  0  0  0  0
 18 45  1  0  0  0  0
 19 24  1  0  0  0  0
 20 21  2  0  0  0  0
 20 22  1  0  0  0  0
 21 48  1  0  0  0  0
 22 49  1  0  0  0  0
 24 28  2  0  0  0  0
 25 50  1  0  0  0  0
 25 51  1  0  0  0  0
 25 52  1  0  0  0  0
 26 53  1  0  0  0  0
 26 54  1  0  0  0  0
 26 55  1  0  0  0  0
 28 58  1  0  0  0  0
 29 30  1  0  0  0  0
 29 31  2  0  0  0  0
 30 32  2  0  0  0  0
 30 59  1  0  0  0  0
 31 60  1  0  0  0  0
 32 33  1  0  0  0  0
 32 61  1  0  0  0  0
 33 62  1  0  0  0  0
M  END
> <PUBCHEM_COMPOUND_CID>
54760385

> <PUBCHEM_COMPOUND_CANONICALIZED>
1

> <PUBCHEM_CACTVS_COMPLEXITY>
603

> <PUBCHEM_CACTVS_HBOND_ACCEPTOR>
8

> <PUBCHEM_CACTVS_HBOND_DONOR>
2

> <PUBCHEM_CACTVS_ROTATABLE_BOND>
6

> <PUBCHEM_CACTVS_SUBSKEYS>
AAADceB7wAAAAAAAAAAAAAAAAAAAAWAAAAA8WLEAAAAAAFgB/gAAHAAQAAAACCjBFwQ/8L/MEACgATZnZACCgC0xEqAJ2CA4dJiIaOLA2dGUJAhokALIyCcQAAAAAACAAAAAAAAAAQAAAAAAAAAAAAAAAA==

> <PUBCHEM_IUPAC_OPENEYE_NAME>
9-isopropyl-N2-[4-(4-methylpiperazin-1-yl)phenyl]-N8-(3-pyridyl)purine-2,8-diamine

> <PUBCHEM_IUPAC_CAS_NAME>
N2-[4-(4-methyl-1-piperazinyl)phenyl]-9-propan-2-yl-N8-(3-pyridinyl)purine-2,8-diamine

> <PUBCHEM_IUPAC_NAME_MARKUP>
2-<I>N</I>-[4-(4-methylpiperazin-1-yl)phenyl]-9-propan-2-yl-8-<I>N</I>-pyridin-3-ylpurine-2,8-diamine

> <PUBCHEM_IUPAC_NAME>
2-N-[4-(4-methylpiperazin-1-yl)phenyl]-9-propan-2-yl-8-N-pyridin-3-ylpurine-2,8-diamine

> <PUBCHEM_IUPAC_SYSTEMATIC_NAME>
N2-[4-(4-methylpiperazin-1-yl)phenyl]-9-propan-2-yl-N8-pyridin-3-yl-purine-2,8-diamine

> <PUBCHEM_IUPAC_TRADITIONAL_NAME>
[9-isopropyl-2-[4-(4-methylpiperazino)anilino]purin-8-yl]-(3-pyridyl)amine

> <PUBCHEM_IUPAC_INCHI>
InChI=1S/C24H29N9/c1-17(2)33-22-21(29-24(33)28-19-5-4-10-25-15-19)16-26-23(30-22)27-18-6-8-20(9-7-18)32-13-11-31(3)12-14-32/h4-10,15-17H,11-14H2,1-3H3,(H,28,29)(H,26,27,30)

> <PUBCHEM_IUPAC_INCHIKEY>
WSOHOUHPUOAXIN-UHFFFAOYSA-N

> <PUBCHEM_XLOGP3_AA>
3.4

> <PUBCHEM_EXACT_MASS>
443.25459196

> <PUBCHEM_MOLECULAR_FORMULA>
C24H29N9

> <PUBCHEM_MOLECULAR_WEIGHT>
443.5

> <PUBCHEM_OPENEYE_CAN_SMILES>
CC(C)N1C2=NC(=NC=C2N=C1NC3=CN=CC=C3)NC4=CC=C(C=C4)N5CCN(CC5)C

> <PUBCHEM_OPENEYE_ISO_SMILES>
CC(C)N1C2=NC(=NC=C2N=C1NC3=CN=CC=C3)NC4=CC=C(C=C4)N5CCN(CC5)C

> <PUBCHEM_CACTVS_TPSA>
87

> <PUBCHEM_MONOISOTOPIC_WEIGHT>
443.25459196

> <PUBCHEM_TOTAL_CHARGE>
0

> <PUBCHEM_HEAVY_ATOM_COUNT>
33

> <PUBCHEM_ATOM_DEF_STEREO_COUNT>
0

> <PUBCHEM_ATOM_UDEF_STEREO_COUNT>
0

> <PUBCHEM_BOND_DEF_STEREO_COUNT>
0

> <PUBCHEM_BOND_UDEF_STEREO_COUNT>
0

> <PUBCHEM_ISOTOPIC_ATOM_COUNT>
0

> <PUBCHEM_COMPONENT_COUNT>
1

> <PUBCHEM_CACTVS_TAUTO_COUNT>
-1

> <PUBCHEM_COORDINATE_TYPE>
1
5
255

> <PUBCHEM_BONDANNOTATIONS>
14  16  8
14  17  8
16  21  8
17  22  8
19  24  8
20  21  8
20  22  8
24  28  8
29  30  8
29  31  8
3  19  8
3  23  8
30  32  8
32  33  8
5  23  8
5  24  8
6  19  8
6  27  8
8  27  8
8  28  8
9  31  8
9  33  8

$$$$
44467821
  -OEChem-11282412102D

 84 89  0     0  0  0  0  0  0999 V2000
   11.7173   -3.0219    0.0000 S   0  0  0  0  0  0  0  0  0  0  0  0
    6.3301    3.0067    0.0000 O   0  0  0  0  0  0  0  0  0  0  0  0
    6.3301    1.0067    0.0000 O   0  0  0  0  0  0  0  0  0  0  0  0
   15.6646   -6.6350    0.0000 O   0  0  0  0  0  0  0  0  0  0  0  0
   14.7047   -3.1595    0.0000 O   0  0  0  0  0  0  0  0  0  0  0  0
    4.5981    6.0067    0.0000 N   0  0  0  0  0  0  0  0  0  0  0  0
    2.8660    7.0067    0.0000 N   0  0  0  0  0  0  0  0  0  0  0  0
    9.8106   -0.0279    0.0000 N   0  0  0  0  0  0  0  0  0  0  0  0
    9.8222    3.0414    0.0000 N   0  0  0  0  0  0  0  0  0  0  0  0
   10.7282    1.4859    0.0000 N   0  0  0  0  0  0  0  0  0  0  0  0
   13.1204   -2.2334    0.0000 N   0  0  0  0  0  0  0  0  0  0  0  0
   13.1948   -4.0082    0.0000 N   0  0  0  0  0  0  0  0  0  0  0  0
   14.6846   -4.8915    0.0000 N   0  0  0  0  0  0  0  0  0  0  0  0
    4.5981    7.0067    0.0000 C   0  0  0  0  0  0  0  0  0  0  0  0
    3.7320    5.5067    0.0000 C   0  0  0  0  0  0  0  0  0  0  0  0
    3.7320    7.5067    0.0000 C   0  0  0  0  0  0  0  0  0  0  0  0
    2.8660    6.0067    0.0000 C   0  0  0  0  0  0  0  0  0  0  0  0
    5.4641    5.5067    0.0000 C   0  0  0  0  0  0  0  0  0  0  0  0
    5.4641    4.5067    0.0000 C   0  0  0  0  0  0  0  0  0  0  0  0
    2.0000    7.5067    0.0000 C   0  0  0  0  0  0  0  0  0  0  0  0
    6.3301    4.0067    0.0000 C   0  0  0  0  0  0  0  0  0  0  0  0
    7.1962    2.5067    0.0000 C   0  0  0  0  0  0  0  0  0  0  0  0
    7.1962    1.5067    0.0000 C   0  0  0  0  0  0  0  0  0  0  0  0
    8.0622    3.0067    0.0000 C   0  0  0  0  0  0  0  0  0  0  0  0
    8.9282    1.5067    0.0000 C   0  0  0  0  0  0  0  0  0  0  0  0
    8.9282    2.5067    0.0000 C   0  0  0  0  0  0  0  0  0  0  0  0
    8.0622    1.0067    0.0000 C   0  0  0  0  0  0  0  0  0  0  0  0
    9.8222    0.9721    0.0000 C   0  0  0  0  0  0  0  0  0  0  0  0
   10.6708   -0.5379    0.0000 C   0  0  0  0  0  0  0  0  0  0  0  0
   10.7282    2.5275    0.0000 C   0  0  0  0  0  0  0  0  0  0  0  0
   10.6592   -1.5378    0.0000 C   0  0  0  0  0  0  0  0  0  0  0  0
   11.5194   -2.0478    0.0000 C   0  0  0  0  0  0  0  0  0  0  0  0
    6.3301    0.0067    0.0000 C   0  0  0  0  0  0  0  0  0  0  0  0
   11.5425   -0.0479    0.0000 C   0  0  0  0  0  0  0  0  0  0  0  0
   12.3911   -1.5578    0.0000 C   0  0  0  0  0  0  0  0  0  0  0  0
   12.4027   -0.5579    0.0000 C   0  0  0  0  0  0  0  0  0  0  0  0
   12.7048   -3.1364    0.0000 C   0  0  0  0  0  0  0  0  0  0  0  0
   15.6846   -4.9030    0.0000 C   0  0  0  0  0  0  0  0  0  0  0  0
   17.1945   -4.0544    0.0000 C   0  0  0  0  0  0  0  0  0  0  0  0
   14.1947   -4.0197    0.0000 C   0  0  0  0  0  0  0  0  0  0  0  0
   16.1946   -4.0428    0.0000 C   0  0  0  0  0  0  0  0  0  0  0  0
   16.1745   -5.7748    0.0000 C   0  0  0  0  0  0  0  0  0  0  0  0
   17.6844   -4.9262    0.0000 C   0  0  0  0  0  0  0  0  0  0  0  0
   17.1745   -5.7864    0.0000 C   0  0  0  0  0  0  0  0  0  0  0  0
   17.7045   -3.1942    0.0000 C   0  0  0  0  0  0  0  0  0  0  0  0
   16.1545   -7.5067    0.0000 C   0  0  0  0  0  0  0  0  0  0  0  0
    5.2087    6.8991    0.0000 H   0  0  0  0  0  0  0  0  0  0  0  0
    4.8101    7.5893    0.0000 H   0  0  0  0  0  0  0  0  0  0  0  0
    3.3335    5.0318    0.0000 H   0  0  0  0  0  0  0  0  0  0  0  0
    4.1306    5.0318    0.0000 H   0  0  0  0  0  0  0  0  0  0  0  0
    4.1306    7.9817    0.0000 H   0  0  0  0  0  0  0  0  0  0  0  0
    3.3335    7.9817    0.0000 H   0  0  0  0  0  0  0  0  0  0  0  0
    2.2554    6.1144    0.0000 H   0  0  0  0  0  0  0  0  0  0  0  0
    2.6540    5.4241    0.0000 H   0  0  0  0  0  0  0  0  0  0  0  0
    6.0747    5.3991    0.0000 H   0  0  0  0  0  0  0  0  0  0  0  0
    5.6762    6.0893    0.0000 H   0  0  0  0  0  0  0  0  0  0  0  0
    4.8535    4.6144    0.0000 H   0  0  0  0  0  0  0  0  0  0  0  0
    5.2520    3.9241    0.0000 H   0  0  0  0  0  0  0  0  0  0  0  0
    2.3100    8.0437    0.0000 H   0  0  0  0  0  0  0  0  0  0  0  0
    1.4631    7.8167    0.0000 H   0  0  0  0  0  0  0  0  0  0  0  0
    1.6900    6.9698    0.0000 H   0  0  0  0  0  0  0  0  0  0  0  0
    6.9407    3.8991    0.0000 H   0  0  0  0  0  0  0  0  0  0  0  0
    6.5422    4.5893    0.0000 H   0  0  0  0  0  0  0  0  0  0  0  0
    8.0622    3.6267    0.0000 H   0  0  0  0  0  0  0  0  0  0  0  0
    8.0622    0.3867    0.0000 H   0  0  0  0  0  0  0  0  0  0  0  0
    9.2701   -0.3316    0.0000 H   0  0  0  0  0  0  0  0  0  0  0  0
   11.2639    2.8396    0.0000 H   0  0  0  0  0  0  0  0  0  0  0  0
   10.1187   -1.8416    0.0000 H   0  0  0  0  0  0  0  0  0  0  0  0
    5.7101    0.0067    0.0000 H   0  0  0  0  0  0  0  0  0  0  0  0
    6.3301   -0.6133    0.0000 H   0  0  0  0  0  0  0  0  0  0  0  0
    6.9501    0.0067    0.0000 H   0  0  0  0  0  0  0  0  0  0  0  0
   11.5497    0.5721    0.0000 H   0  0  0  0  0  0  0  0  0  0  0  0
   12.9432   -0.2541    0.0000 H   0  0  0  0  0  0  0  0  0  0  0  0
   12.8786   -4.5415    0.0000 H   0  0  0  0  0  0  0  0  0  0  0  0
   15.8908   -3.5024    0.0000 H   0  0  0  0  0  0  0  0  0  0  0  0
   14.3685   -5.4248    0.0000 H   0  0  0  0  0  0  0  0  0  0  0  0
   18.3044   -4.9333    0.0000 H   0  0  0  0  0  0  0  0  0  0  0  0
   17.4782   -6.3268    0.0000 H   0  0  0  0  0  0  0  0  0  0  0  0
   18.2378   -3.5104    0.0000 H   0  0  0  0  0  0  0  0  0  0  0  0
   18.0207   -2.6609    0.0000 H   0  0  0  0  0  0  0  0  0  0  0  0
   17.1712   -2.8780    0.0000 H   0  0  0  0  0  0  0  0  0  0  0  0
   15.6140   -7.8105    0.0000 H   0  0  0  0  0  0  0  0  0  0  0  0
   16.4583   -8.0472    0.0000 H   0  0  0  0  0  0  0  0  0  0  0  0
   16.6950   -7.2030    0.0000 H   0  0  0  0  0  0  0  0  0  0  0  0
  1 32  1  0  0  0  0
  1 37  1  0  0  0  0
  2 21  1  0  0  0  0
  2 22  1  0  0  0  0
  3 23  1  0  0  0  0
  3 33  1  0  0  0  0
  4 42  1  0  0  0  0
  4 46  1  0  0  0  0
  5 40  2  0  0  0  0
  6 14  1  0  0  0  0
  6 15  1  0  0  0  0
  6 18  1  0  0  0  0
  7 16  1  0  0  0  0
  7 17  1  0  0  0  0
  7 20  1  0  0  0  0
  8 28  1  0  0  0  0
  8 29  1  0  0  0  0
  8 66  1  0  0  0  0
  9 26  1  0  0  0  0
  9 30  2  0  0  0  0
 10 28  2  0  0  0  0
 10 30  1  0  0  0  0
 11 35  1  0  0  0  0
 11 37  2  0  0  0  0
 12 37  1  0  0  0  0
 12 40  1  0  0  0  0
 12 74  1  0  0  0  0
 13 38  1  0  0  0  0
 13 40  1  0  0  0  0
 13 76  1  0  0  0  0
 14 16  1  0  0  0  0
 14 47  1  0  0  0  0
 14 48  1  0  0  0  0
 15 17  1  0  0  0  0
 15 49  1  0  0  0  0
 15 50  1  0  0  0  0
 16 51  1  0  0  0  0
 16 52  1  0  0  0  0
 17 53  1  0  0  0  0
 17 54  1  0  0  0  0
 18 19  1  0  0  0  0
 18 55  1  0  0  0  0
 18 56  1  0  0  0  0
 19 21  1  0  0  0  0
 19 57  1  0  0  0  0
 19 58  1  0  0  0  0
 20 59  1  0  0  0  0
 20 60  1  0  0  0  0
 20 61  1  0  0  0  0
 21 62  1  0  0  0  0
 21 63  1  0  0  0  0
 22 23  2  0  0  0  0
 22 24  1  0  0  0  0
 23 27  1  0  0  0  0
 24 26  2  0  0  0  0
 24 64  1  0  0  0  0
 25 26  1  0  0  0  0
 25 27  2  0  0  0  0
 25 28  1  0  0  0  0
 27 65  1  0  0  0  0
 29 31  2  0  0  0  0
 29 34  1  0  0  0  0
 30 67  1  0  0  0  0
 31 32  1  0  0  0  0
 31 68  1  0  0  0  0
 32 35  2  0  0  0  0
 33 69  1  0  0  0  0
 33 70  1  0  0  0  0
 33 71  1  0  0  0  0
 34 36  2  0  0  0  0
 34 72  1  0  0  0  0
 35 36  1  0  0  0  0
 36 73  1  0  0  0  0
 38 41  1  0  0  0  0
 38 42  2  0  0  0  0
 39 41  2  0  0  0  0
 39 43  1  0  0  0  0
 39 45  1  0  0  0  0
 41 75  1  0  0  0  0
 42 44  1  0  0  0  0
 43 44  2  0  0  0  0
 43 77  1  0  0  0  0
 44 78  1  0  0  0  0
 45 79  1  0  0  0  0
 45 80  1  0  0  0  0
 45 81  1  0  0  0  0
 46 82  1  0  0  0  0
 46 83  1  0  0  0  0
 46 84  1  0  0  0  0
M  END
> <PUBCHEM_COMPOUND_CID>
44467821

> <PUBCHEM_COMPOUND_CANONICALIZED>
1

> <PUBCHEM_CACTVS_COMPLEXITY>
963

> <PUBCHEM_CACTVS_HBOND_ACCEPTOR>
11

> <PUBCHEM_CACTVS_HBOND_DONOR>
3

> <PUBCHEM_CACTVS_ROTATABLE_BOND>
11

> <PUBCHEM_CACTVS_SUBSKEYS>
AAADcfB/+ABAAAAAAAAAAAAAAAAAAWAAAAA8eMECAAAAAFix/gAAHgQQAAAADAzh3gY39/fIFAisAyZjdACD+KlxKrlJ2Dw/7JiPbuLk+duXPC7u1Rva6Cew0BMOIECBQiACUQBAgQKEQASiAAAAAAAAAA==

> <PUBCHEM_IUPAC_OPENEYE_NAME>
1-(2-methoxy-5-methyl-phenyl)-3-[6-[[6-methoxy-7-[3-(4-methylpiperazin-1-yl)propoxy]quinazolin-4-yl]amino]-1,3-benzothiazol-2-yl]urea

> <PUBCHEM_IUPAC_CAS_NAME>
1-(2-methoxy-5-methylphenyl)-3-[6-[[6-methoxy-7-[3-(4-methyl-1-piperazinyl)propoxy]-4-quinazolinyl]amino]-1,3-benzothiazol-2-yl]urea

> <PUBCHEM_IUPAC_NAME_MARKUP>
1-(2-methoxy-5-methylphenyl)-3-[6-[[6-methoxy-7-[3-(4-methylpiperazin-1-yl)propoxy]quinazolin-4-yl]amino]-1,3-benzothiazol-2-yl]urea

> <PUBCHEM_IUPAC_NAME>
1-(2-methoxy-5-methylphenyl)-3-[6-[[6-methoxy-7-[3-(4-methylpiperazin-1-yl)propoxy]quinazolin-4-yl]amino]-1,3-benzothiazol-2-yl]urea

> <PUBCHEM_IUPAC_SYSTEMATIC_NAME>
1-(2-methoxy-5-methyl-phenyl)-3-[6-[[6-methoxy-7-[3-(4-methylpiperazin-1-yl)propoxy]quinazolin-4-yl]amino]-1,3-benzothiazol-2-yl]urea

> <PUBCHEM_IUPAC_TRADITIONAL_NAME>
1-(2-methoxy-5-methyl-phenyl)-3-[6-[[6-methoxy-7-[3-(4-methylpiperazino)propoxy]quinazolin-4-yl]amino]-1,3-benzothiazol-2-yl]urea

> <PUBCHEM_IUPAC_INCHI>
InChI=1S/C33H38N8O4S/c1-21-6-9-27(43-3)26(16-21)37-32(42)39-33-38-24-8-7-22(17-30(24)46-33)36-31-23-18-28(44-4)29(19-25(23)34-20-35-31)45-15-5-10-41-13-11-40(2)12-14-41/h6-9,16-20H,5,10-15H2,1-4H3,(H,34,35,36)(H2,37,38,39,42)

> <PUBCHEM_IUPAC_INCHIKEY>
MAFACRSJGNJHCF-UHFFFAOYSA-N

> <PUBCHEM_XLOGP3_AA>
5.3

> <PUBCHEM_EXACT_MASS>
642.27367290

> <PUBCHEM_MOLECULAR_FORMULA>
C33H38N8O4S

> <PUBCHEM_MOLECULAR_WEIGHT>
642.8

> <PUBCHEM_OPENEYE_CAN_SMILES>
CC1=CC(=C(C=C1)OC)NC(=O)NC2=NC3=C(S2)C=C(C=C3)NC4=NC=NC5=CC(=C(C=C54)OC)OCCCN6CCN(CC6)C

> <PUBCHEM_OPENEYE_ISO_SMILES>
CC1=CC(=C(C=C1)OC)NC(=O)NC2=NC3=C(S2)C=C(C=C3)NC4=NC=NC5=CC(=C(C=C54)OC)OCCCN6CCN(CC6)C

> <PUBCHEM_CACTVS_TPSA>
154

> <PUBCHEM_MONOISOTOPIC_WEIGHT>
642.27367290

> <PUBCHEM_TOTAL_CHARGE>
0

> <PUBCHEM_HEAVY_ATOM_COUNT>
46

> <PUBCHEM_ATOM_DEF_STEREO_COUNT>
0

> <PUBCHEM_ATOM_UDEF_STEREO_COUNT>
0

> <PUBCHEM_BOND_DEF_STEREO_COUNT>
0

> <PUBCHEM_BOND_UDEF_STEREO_COUNT>
0

> <PUBCHEM_ISOTOPIC_ATOM_COUNT>
0

> <PUBCHEM_COMPONENT_COUNT>
1

> <PUBCHEM_CACTVS_TAUTO_COUNT>
-1

> <PUBCHEM_COORDINATE_TYPE>
1
5
255

> <PUBCHEM_BONDANNOTATIONS>
1  32  8
1  37  8
10  28  8
10  30  8
11  35  8
11  37  8
22  23  8
22  24  8
23  27  8
24  26  8
25  26  8
25  27  8
25  28  8
29  31  8
29  34  8
31  32  8
32  35  8
34  36  8
35  36  8
38  41  8
38  42  8
39  41  8
39  43  8
42  44  8
43  44  8
9  26  8
9  30  8

$$$$
134164132
  -OEChem-11282412102D

 65 69  0     0  0  0  0  0  0999 V2000
    4.3211    0.4063    0.0000 O   0  0  0  0  0  0  0  0  0  0  0  0
    9.7619   -4.6913    0.0000 O   0  0  0  0  0  0  0  0  0  0  0  0
    8.1886    3.8765    0.0000 O   0  0  0  0  0  0  0  0  0  0  0  0
    4.6783   -2.8980    0.0000 N   0  0  0  0  0  0  0  0  0  0  0  0
    2.8660   -3.0933    0.0000 N   0  0  0  0  0  0  0  0  0  0  0  0
    2.0000   -1.5933    0.0000 N   0  0  0  0  0  0  0  0  0  0  0  0
    5.9674   -0.1318    0.0000 N   0  0  0  0  0  0  0  0  0  0  0  0
    2.8660   -0.0933    0.0000 N   0  0  0  0  0  0  0  0  0  0  0  0
    8.7619   -2.9593    0.0000 N   0  0  0  0  0  0  0  0  0  0  0  0
    4.9889   -3.8485    0.0000 C   0  0  0  0  0  0  0  0  0  0  0  0
    4.0384   -4.1592    0.0000 C   0  0  0  0  0  0  0  0  0  0  0  0
    4.7827   -4.8270    0.0000 C   0  0  0  0  0  0  0  0  0  0  0  0
    5.9674   -4.0547    0.0000 C   0  0  0  0  0  0  0  0  0  0  0  0
    3.7320   -2.5933    0.0000 C   0  0  0  0  0  0  0  0  0  0  0  0
    5.2619   -2.0933    0.0000 C   0  0  0  0  0  0  0  0  0  0  0  0
    3.7320   -1.5933    0.0000 C   0  0  0  0  0  0  0  0  0  0  0  0
    4.6783   -1.2885    0.0000 C   0  0  0  0  0  0  0  0  0  0  0  0
    6.2619   -2.0933    0.0000 C   0  0  0  0  0  0  0  0  0  0  0  0
    2.8660   -1.0933    0.0000 C   0  0  0  0  0  0  0  0  0  0  0  0
    4.9889   -0.3380    0.0000 C   0  0  0  0  0  0  0  0  0  0  0  0
    2.0000   -2.5933    0.0000 C   0  0  0  0  0  0  0  0  0  0  0  0
    7.2619   -2.0933    0.0000 C   0  0  0  0  0  0  0  0  0  0  0  0
    8.2619   -2.0933    0.0000 C   0  0  0  0  0  0  0  0  0  0  0  0
    9.7619   -2.9593    0.0000 C   0  0  0  0  0  0  0  0  0  0  0  0
    8.2619   -3.8253    0.0000 C   0  0  0  0  0  0  0  0  0  0  0  0
    6.2781    0.8187    0.0000 C   0  0  0  0  0  0  0  0  0  0  0  0
   10.2619   -3.8253    0.0000 C   0  0  0  0  0  0  0  0  0  0  0  0
    8.7619   -4.6913    0.0000 C   0  0  0  0  0  0  0  0  0  0  0  0
    5.6103    1.5630    0.0000 C   0  0  0  0  0  0  0  0  0  0  0  0
    7.2566    1.0249    0.0000 C   0  0  0  0  0  0  0  0  0  0  0  0
    5.9209    2.5136    0.0000 C   0  0  0  0  0  0  0  0  0  0  0  0
    7.5673    1.9755    0.0000 C   0  0  0  0  0  0  0  0  0  0  0  0
    6.8994    2.7198    0.0000 C   0  0  0  0  0  0  0  0  0  0  0  0
    7.2101    3.6703    0.0000 C   0  0  0  0  0  0  0  0  0  0  0  0
    8.4993    4.8270    0.0000 C   0  0  0  0  0  0  0  0  0  0  0  0
    3.7464   -3.6123    0.0000 H   0  0  0  0  0  0  0  0  0  0  0  0
    3.5505   -4.5417    0.0000 H   0  0  0  0  0  0  0  0  0  0  0  0
    4.4551   -5.3534    0.0000 H   0  0  0  0  0  0  0  0  0  0  0  0
    5.3580   -5.0583    0.0000 H   0  0  0  0  0  0  0  0  0  0  0  0
    5.8396   -4.6614    0.0000 H   0  0  0  0  0  0  0  0  0  0  0  0
    6.5741   -4.1826    0.0000 H   0  0  0  0  0  0  0  0  0  0  0  0
    6.0953   -3.4481    0.0000 H   0  0  0  0  0  0  0  0  0  0  0  0
    1.4631   -2.9033    0.0000 H   0  0  0  0  0  0  0  0  0  0  0  0
    6.3815   -0.5933    0.0000 H   0  0  0  0  0  0  0  0  0  0  0  0
    2.3291    0.2167    0.0000 H   0  0  0  0  0  0  0  0  0  0  0  0
    3.4030    0.2167    0.0000 H   0  0  0  0  0  0  0  0  0  0  0  0
    8.8445   -1.8812    0.0000 H   0  0  0  0  0  0  0  0  0  0  0  0
    8.1542   -1.4827    0.0000 H   0  0  0  0  0  0  0  0  0  0  0  0
   10.3445   -2.7472    0.0000 H   0  0  0  0  0  0  0  0  0  0  0  0
    9.6542   -2.3487    0.0000 H   0  0  0  0  0  0  0  0  0  0  0  0
    7.7869   -3.4268    0.0000 H   0  0  0  0  0  0  0  0  0  0  0  0
    7.7869   -4.2238    0.0000 H   0  0  0  0  0  0  0  0  0  0  0  0
   10.7368   -4.2238    0.0000 H   0  0  0  0  0  0  0  0  0  0  0  0
   10.7368   -3.4268    0.0000 H   0  0  0  0  0  0  0  0  0  0  0  0
    8.1793   -4.9034    0.0000 H   0  0  0  0  0  0  0  0  0  0  0  0
    8.8695   -5.3019    0.0000 H   0  0  0  0  0  0  0  0  0  0  0  0
    5.0036    1.4352    0.0000 H   0  0  0  0  0  0  0  0  0  0  0  0
    7.6707    0.5635    0.0000 H   0  0  0  0  0  0  0  0  0  0  0  0
    5.5069    2.9750    0.0000 H   0  0  0  0  0  0  0  0  0  0  0  0
    8.1739    2.1033    0.0000 H   0  0  0  0  0  0  0  0  0  0  0  0
    7.1895    4.2900    0.0000 H   0  0  0  0  0  0  0  0  0  0  0  0
    6.5963    3.7576    0.0000 H   0  0  0  0  0  0  0  0  0  0  0  0
    9.0886    4.6344    0.0000 H   0  0  0  0  0  0  0  0  0  0  0  0
    8.6919    5.4164    0.0000 H   0  0  0  0  0  0  0  0  0  0  0  0
    7.9099    5.0196    0.0000 H   0  0  0  0  0  0  0  0  0  0  0  0
  1 20  2  0  0  0  0
  2 27  1  0  0  0  0
  2 28  1  0  0  0  0
  3 34  1  0  0  0  0
  3 35  1  0  0  0  0
  4 10  1  0  0  0  0
  4 14  1  0  0  0  0
  4 15  1  0  0  0  0
  5 14  2  0  0  0  0
  5 21  1  0  0  0  0
  6 19  1  0  0  0  0
  6 21  2  0  0  0  0
  7 20  1  0  0  0  0
  7 26  1  0  0  0  0
  7 44  1  0  0  0  0
  8 19  1  0  0  0  0
  8 45  1  0  0  0  0
  8 46  1  0  0  0  0
  9 23  1  0  0  0  0
  9 24  1  0  0  0  0
  9 25  1  0  0  0  0
 10 11  1  0  0  0  0
 10 12  1  0  0  0  0
 10 13  1  0  0  0  0
 11 12  1  0  0  0  0
 11 36  1  0  0  0  0
 11 37  1  0  0  0  0
 12 38  1  0  0  0  0
 12 39  1  0  0  0  0
 13 40  1  0  0  0  0
 13 41  1  0  0  0  0
 13 42  1  0  0  0  0
 14 16  1  0  0  0  0
 15 17  2  0  0  0  0
 15 18  1  0  0  0  0
 16 17  1  0  0  0  0
 16 19  2  0  0  0  0
 17 20  1  0  0  0  0
 18 22  3  0  0  0  0
 21 43  1  0  0  0  0
 22 23  1  0  0  0  0
 23 47  1  0  0  0  0
 23 48  1  0  0  0  0
 24 27  1  0  0  0  0
 24 49  1  0  0  0  0
 24 50  1  0  0  0  0
 25 28  1  0  0  0  0
 25 51  1  0  0  0  0
 25 52  1  0  0  0  0
 26 29  2  0  0  0  0
 26 30  1  0  0  0  0
 27 53  1  0  0  0  0
 27 54  1  0  0  0  0
 28 55  1  0  0  0  0
 28 56  1  0  0  0  0
 29 31  1  0  0  0  0
 29 57  1  0  0  0  0
 30 32  2  0  0  0  0
 30 58  1  0  0  0  0
 31 33  2  0  0  0  0
 31 59  1  0  0  0  0
 32 33  1  0  0  0  0
 32 60  1  0  0  0  0
 33 34  1  0  0  0  0
 34 61  1  0  0  0  0
 34 62  1  0  0  0  0
 35 63  1  0  0  0  0
 35 64  1  0  0  0  0
 35 65  1  0  0  0  0
M  END
> <PUBCHEM_COMPOUND_CID>
134164132

> <PUBCHEM_COMPOUND_CANONICALIZED>
1

> <PUBCHEM_CACTVS_COMPLEXITY>
808

> <PUBCHEM_CACTVS_HBOND_ACCEPTOR>
7

> <PUBCHEM_CACTVS_HBOND_DONOR>
2

> <PUBCHEM_CACTVS_ROTATABLE_BOND>
7

> <PUBCHEM_CACTVS_SUBSKEYS>
AAADceB7sAAAAAAAAAAAAAAAGAAAAWAAAAA8WIAAAAAAAFgB/AAAHgAQAAAADIjhnwY38N/MFADoEydzdAiCgCk1AqAJ2CEobNiKLnrA/dmHNYhs1APY6WeU0CMOiAAAAAAAAAAQAAAAAAAAAAAAAAAAAA==

> <PUBCHEM_IUPAC_OPENEYE_NAME>
4-amino-N-[4-(methoxymethyl)phenyl]-7-(1-methylcyclopropyl)-6-(3-morpholinoprop-1-ynyl)pyrrolo[2,3-d]pyrimidine-5-carboxamide

> <PUBCHEM_IUPAC_CAS_NAME>
4-amino-N-[4-(methoxymethyl)phenyl]-7-(1-methylcyclopropyl)-6-[3-(4-morpholinyl)prop-1-ynyl]-5-pyrrolo[2,3-d]pyrimidinecarboxamide

> <PUBCHEM_IUPAC_NAME_MARKUP>
4-amino-<I>N</I>-[4-(methoxymethyl)phenyl]-7-(1-methylcyclopropyl)-6-(3-morpholin-4-ylprop-1-ynyl)pyrrolo[2,3-d]pyrimidine-5-carboxamide

> <PUBCHEM_IUPAC_NAME>
4-amino-N-[4-(methoxymethyl)phenyl]-7-(1-methylcyclopropyl)-6-(3-morpholin-4-ylprop-1-ynyl)pyrrolo[2,3-d]pyrimidine-5-carboxamide

> <PUBCHEM_IUPAC_SYSTEMATIC_NAME>
4-azanyl-N-[4-(methoxymethyl)phenyl]-7-(1-methylcyclopropyl)-6-(3-morpholin-4-ylprop-1-ynyl)pyrrolo[2,3-d]pyrimidine-5-carboxamide

> <PUBCHEM_IUPAC_TRADITIONAL_NAME>
4-amino-N-[4-(methoxymethyl)phenyl]-7-(1-methylcyclopropyl)-6-(3-morpholinoprop-1-ynyl)pyrrolo[2,3-d]pyrimidine-5-carboxamide

> <PUBCHEM_IUPAC_INCHI>
InChI=1S/C26H30N6O3/c1-26(9-10-26)32-20(4-3-11-31-12-14-35-15-13-31)21(22-23(27)28-17-29-24(22)32)25(33)30-19-7-5-18(6-8-19)16-34-2/h5-8,17H,9-16H2,1-2H3,(H,30,33)(H2,27,28,29)

> <PUBCHEM_IUPAC_INCHIKEY>
SFXVRNLGOSAWIV-UHFFFAOYSA-N

> <PUBCHEM_XLOGP3_AA>
1.3

> <PUBCHEM_EXACT_MASS>
474.23793884

> <PUBCHEM_MOLECULAR_FORMULA>
C26H30N6O3

> <PUBCHEM_MOLECULAR_WEIGHT>
474.6

> <PUBCHEM_OPENEYE_CAN_SMILES>
CC1(CC1)N2C(=C(C3=C(N=CN=C32)N)C(=O)NC4=CC=C(C=C4)COC)C#CCN5CCOCC5

> <PUBCHEM_OPENEYE_ISO_SMILES>
CC1(CC1)N2C(=C(C3=C(N=CN=C32)N)C(=O)NC4=CC=C(C=C4)COC)C#CCN5CCOCC5

> <PUBCHEM_CACTVS_TPSA>
108

> <PUBCHEM_MONOISOTOPIC_WEIGHT>
474.23793884

> <PUBCHEM_TOTAL_CHARGE>
0

> <PUBCHEM_HEAVY_ATOM_COUNT>
35

> <PUBCHEM_ATOM_DEF_STEREO_COUNT>
0

> <PUBCHEM_ATOM_UDEF_STEREO_COUNT>
0

> <PUBCHEM_BOND_DEF_STEREO_COUNT>
0

> <PUBCHEM_BOND_UDEF_STEREO_COUNT>
0

> <PUBCHEM_ISOTOPIC_ATOM_COUNT>
0

> <PUBCHEM_COMPONENT_COUNT>
1

> <PUBCHEM_CACTVS_TAUTO_COUNT>
-1

> <PUBCHEM_COORDINATE_TYPE>
1
5
255

> <PUBCHEM_BONDANNOTATIONS>
14  16  8
15  17  8
16  17  8
16  19  8
26  29  8
26  30  8
29  31  8
30  32  8
31  33  8
32  33  8
4  14  8
4  15  8
5  14  8
5  21  8
6  19  8
6  21  8

$$$$
155190269
  -OEChem-11282412102D

 68 73  0     1  0  0  0  0  0999 V2000
    3.3100    6.5000    0.0000 F   0  0  0  0  0  0  0  0  0  0  0  0
   10.7763   -4.2312    0.0000 O   0  0  0  0  0  0  0  0  0  0  0  0
    3.3100   -3.5000    0.0000 N   0  0  0  0  0  0  0  0  0  0  0  0
    3.3100   -1.5000    0.0000 N   0  0  0  0  0  0  0  0  0  0  0  0
    4.1760   -6.0000    0.0000 N   0  0  0  0  0  0  0  0  0  0  0  0
    2.4440   -5.0000    0.0000 N   0  0  0  0  0  0  0  0  0  0  0  0
    4.1760    0.0000    0.0000 N   0  0  0  0  0  0  0  0  0  0  0  0
    2.4440    0.0000    0.0000 N   0  0  0  0  0  0  0  0  0  0  0  0
    3.3100   -6.5000    0.0000 N   0  0  0  0  0  0  0  0  0  0  0  0
    2.3100    2.5000    0.0000 N   0  0  0  0  0  0  0  0  0  0  0  0
    8.2447   -5.0000    0.0000 N   0  0  0  0  0  0  0  0  0  0  0  0
    8.2447   -6.0000    0.0000 N   0  0  0  0  0  0  0  0  0  0  0  0
    2.4440   -3.0000    0.0000 C   0  0  0  0  0  0  0  0  0  0  0  0
    4.1760   -3.0000    0.0000 C   0  0  0  0  0  0  0  0  0  0  0  0
    2.4440   -2.0000    0.0000 C   0  0  0  0  0  0  0  0  0  0  0  0
    4.1760   -2.0000    0.0000 C   0  0  0  0  0  0  0  0  0  0  0  0
    3.3100   -4.5000    0.0000 C   0  0  0  0  0  0  0  0  0  0  0  0
    3.3100   -0.5000    0.0000 C   0  0  0  0  0  0  0  0  0  0  0  0
    4.1760   -5.0000    0.0000 C   0  0  0  0  0  0  0  0  0  0  0  0
    3.3100    2.5000    0.0000 C   0  0  2  0  0  0  0  0  0  0  0  0
    3.3100    1.5000    0.0000 C   0  0  0  0  0  0  0  0  0  0  0  0
    5.1222   -4.6953    0.0000 C   0  0  0  0  0  0  0  0  0  0  0  0
    5.7058   -5.5000    0.0000 C   0  0  0  0  0  0  0  0  0  0  0  0
    5.1222   -6.3047    0.0000 C   0  0  0  0  0  0  0  0  0  0  0  0
    3.3100    3.5000    0.0000 C   0  0  0  0  0  0  0  0  0  0  0  0
    4.1760    1.0000    0.0000 C   0  0  0  0  0  0  0  0  0  0  0  0
    2.4440    1.0000    0.0000 C   0  0  0  0  0  0  0  0  0  0  0  0
    4.3100    2.5000    0.0000 C   0  0  0  0  0  0  0  0  0  0  0  0
    6.7058   -5.5000    0.0000 C   0  0  0  0  0  0  0  0  0  0  0  0
    2.4440   -6.0000    0.0000 C   0  0  0  0  0  0  0  0  0  0  0  0
    2.4440    4.0000    0.0000 C   0  0  0  0  0  0  0  0  0  0  0  0
    4.1760    4.0000    0.0000 C   0  0  0  0  0  0  0  0  0  0  0  0
    7.2936   -4.6910    0.0000 C   0  0  0  0  0  0  0  0  0  0  0  0
    7.2936   -6.3090    0.0000 C   0  0  0  0  0  0  0  0  0  0  0  0
    2.4440    5.0000    0.0000 C   0  0  0  0  0  0  0  0  0  0  0  0
    4.1760    5.0000    0.0000 C   0  0  0  0  0  0  0  0  0  0  0  0
    9.0537   -4.4122    0.0000 C   0  0  0  0  0  0  0  0  0  0  0  0
    3.3100    5.5000    0.0000 C   0  0  0  0  0  0  0  0  0  0  0  0
    9.9673   -4.8190    0.0000 C   0  0  0  0  0  0  0  0  0  0  0  0
    1.8334   -2.8923    0.0000 H   0  0  0  0  0  0  0  0  0  0  0  0
    2.2319   -3.5826    0.0000 H   0  0  0  0  0  0  0  0  0  0  0  0
    4.3881   -3.5826    0.0000 H   0  0  0  0  0  0  0  0  0  0  0  0
    4.7866   -2.8923    0.0000 H   0  0  0  0  0  0  0  0  0  0  0  0
    2.2319   -1.4174    0.0000 H   0  0  0  0  0  0  0  0  0  0  0  0
    1.8334   -2.1077    0.0000 H   0  0  0  0  0  0  0  0  0  0  0  0
    4.7866   -2.1077    0.0000 H   0  0  0  0  0  0  0  0  0  0  0  0
    4.3881   -1.4174    0.0000 H   0  0  0  0  0  0  0  0  0  0  0  0
    5.3149   -4.1060    0.0000 H   0  0  0  0  0  0  0  0  0  0  0  0
    5.3149   -6.8940    0.0000 H   0  0  0  0  0  0  0  0  0  0  0  0
    4.7130    1.3100    0.0000 H   0  0  0  0  0  0  0  0  0  0  0  0
    1.9070    1.3100    0.0000 H   0  0  0  0  0  0  0  0  0  0  0  0
    4.3100    1.8800    0.0000 H   0  0  0  0  0  0  0  0  0  0  0  0
    4.9300    2.5000    0.0000 H   0  0  0  0  0  0  0  0  0  0  0  0
    4.3100    3.1200    0.0000 H   0  0  0  0  0  0  0  0  0  0  0  0
    1.9070   -6.3100    0.0000 H   0  0  0  0  0  0  0  0  0  0  0  0
    2.0000    3.0369    0.0000 H   0  0  0  0  0  0  0  0  0  0  0  0
    2.0000    1.9631    0.0000 H   0  0  0  0  0  0  0  0  0  0  0  0
    1.9070    3.6900    0.0000 H   0  0  0  0  0  0  0  0  0  0  0  0
    4.7130    3.6900    0.0000 H   0  0  0  0  0  0  0  0  0  0  0  0
    7.1020   -4.1013    0.0000 H   0  0  0  0  0  0  0  0  0  0  0  0
    7.1020   -6.8987    0.0000 H   0  0  0  0  0  0  0  0  0  0  0  0
    1.9070    5.3100    0.0000 H   0  0  0  0  0  0  0  0  0  0  0  0
    4.7130    5.3100    0.0000 H   0  0  0  0  0  0  0  0  0  0  0  0
    9.4004   -3.8982    0.0000 H   0  0  0  0  0  0  0  0  0  0  0  0
    8.6077   -3.9815    0.0000 H   0  0  0  0  0  0  0  0  0  0  0  0
    9.6206   -5.3330    0.0000 H   0  0  0  0  0  0  0  0  0  0  0  0
   10.4132   -5.2496    0.0000 H   0  0  0  0  0  0  0  0  0  0  0  0
   11.3427   -4.4833    0.0000 H   0  0  0  0  0  0  0  0  0  0  0  0
  1 38  1  0  0  0  0
  2 39  1  0  0  0  0
  2 68  1  0  0  0  0
  3 13  1  0  0  0  0
  3 14  1  0  0  0  0
  3 17  1  0  0  0  0
  4 15  1  0  0  0  0
  4 16  1  0  0  0  0
  4 18  1  0  0  0  0
  5  9  1  0  0  0  0
  5 19  1  0  0  0  0
  5 24  1  0  0  0  0
  6 17  2  0  0  0  0
  6 30  1  0  0  0  0
  7 18  2  0  0  0  0
  7 26  1  0  0  0  0
  8 18  1  0  0  0  0
  8 27  2  0  0  0  0
  9 30  2  0  0  0  0
 20 10  1  6  0  0  0
 10 56  1  0  0  0  0
 10 57  1  0  0  0  0
 11 12  1  0  0  0  0
 11 33  1  0  0  0  0
 11 37  1  0  0  0  0
 12 34  2  0  0  0  0
 13 15  1  0  0  0  0
 13 40  1  0  0  0  0
 13 41  1  0  0  0  0
 14 16  1  0  0  0  0
 14 42  1  0  0  0  0
 14 43  1  0  0  0  0
 15 44  1  0  0  0  0
 15 45  1  0  0  0  0
 16 46  1  0  0  0  0
 16 47  1  0  0  0  0
 17 19  1  0  0  0  0
 19 22  2  0  0  0  0
 20 21  1  0  0  0  0
 20 25  1  0  0  0  0
 20 28  1  0  0  0  0
 21 26  2  0  0  0  0
 21 27  1  0  0  0  0
 22 23  1  0  0  0  0
 22 48  1  0  0  0  0
 23 24  2  0  0  0  0
 23 29  1  0  0  0  0
 24 49  1  0  0  0  0
 25 31  2  0  0  0  0
 25 32  1  0  0  0  0
 26 50  1  0  0  0  0
 27 51  1  0  0  0  0
 28 52  1  0  0  0  0
 28 53  1  0  0  0  0
 28 54  1  0  0  0  0
 29 33  2  0  0  0  0
 29 34  1  0  0  0  0
 30 55  1  0  0  0  0
 31 35  1  0  0  0  0
 31 58  1  0  0  0  0
 32 36  2  0  0  0  0
 32 59  1  0  0  0  0
 33 60  1  0  0  0  0
 34 61  1  0  0  0  0
 35 38  2  0  0  0  0
 35 62  1  0  0  0  0
 36 38  1  0  0  0  0
 36 63  1  0  0  0  0
 37 39  1  0  0  0  0
 37 64  1  0  0  0  0
 37 65  1  0  0  0  0
 39 66  1  0  0  0  0
 39 67  1  0  0  0  0
M  END
> <PUBCHEM_COMPOUND_CID>
155190269

> <PUBCHEM_COMPOUND_CANONICALIZED>
1

> <PUBCHEM_CACTVS_COMPLEXITY>
789

> <PUBCHEM_CACTVS_HBOND_ACCEPTOR>
10

> <PUBCHEM_CACTVS_HBOND_DONOR>
2

> <PUBCHEM_CACTVS_ROTATABLE_BOND>
7

> <PUBCHEM_CACTVS_SUBSKEYS>
AAADceB74QAAAAAAAAAAAAAAAAAAAWLAAAA8WLEAAAAAAFgB/gAAHwAYCAAADIjhng4/8LdIEgCiAzZnZACShC8xkqAd2CA4dJiKeOLA2dGUpAhomALYyCcQgMAOgAAAAAAAAAAAAAAAAAAAAAAAAAAAAA==

> <PUBCHEM_IUPAC_OPENEYE_NAME>
2-[4-[4-[4-[5-[(1S)-1-amino-1-(4-fluorophenyl)ethyl]pyrimidin-2-yl]piperazin-1-yl]pyrrolo[2,1-f][1,2,4]triazin-6-yl]pyrazol-1-yl]ethanol

> <PUBCHEM_IUPAC_CAS_NAME>
2-[4-[4-[4-[5-[(1S)-1-amino-1-(4-fluorophenyl)ethyl]-2-pyrimidinyl]-1-piperazinyl]-6-pyrrolo[2,1-f][1,2,4]triazinyl]-1-pyrazolyl]ethanol

> <PUBCHEM_IUPAC_NAME_MARKUP>
2-[4-[4-[4-[5-[(1<I>S</I>)-1-amino-1-(4-fluorophenyl)ethyl]pyrimidin-2-yl]piperazin-1-yl]pyrrolo[2,1-f][1,2,4]triazin-6-yl]pyrazol-1-yl]ethanol

> <PUBCHEM_IUPAC_NAME>
2-[4-[4-[4-[5-[(1S)-1-amino-1-(4-fluorophenyl)ethyl]pyrimidin-2-yl]piperazin-1-yl]pyrrolo[2,1-f][1,2,4]triazin-6-yl]pyrazol-1-yl]ethanol

> <PUBCHEM_IUPAC_SYSTEMATIC_NAME>
2-[4-[4-[4-[5-[(1S)-1-azanyl-1-(4-fluorophenyl)ethyl]pyrimidin-2-yl]piperazin-1-yl]pyrrolo[2,1-f][1,2,4]triazin-6-yl]pyrazol-1-yl]ethanol

> <PUBCHEM_IUPAC_TRADITIONAL_NAME>
2-[4-[4-[4-[5-[(1S)-1-amino-1-(4-fluorophenyl)ethyl]pyrimidin-2-yl]piperazino]pyrrolo[2,1-f][1,2,4]triazin-6-yl]pyrazol-1-yl]ethanol

> <PUBCHEM_IUPAC_INCHI>
InChI=1S/C27H29FN10O/c1-27(29,21-2-4-23(28)5-3-21)22-14-30-26(31-15-22)36-8-6-35(7-9-36)25-24-12-19(17-38(24)34-18-32-25)20-13-33-37(16-20)10-11-39/h2-5,12-18,39H,6-11,29H2,1H3/t27-/m0/s1

> <PUBCHEM_IUPAC_INCHIKEY>
IPMARPMXSFFZFG-MHZLTWQESA-N

> <PUBCHEM_XLOGP3_AA>
1.1

> <PUBCHEM_EXACT_MASS>
528.25098375

> <PUBCHEM_MOLECULAR_FORMULA>
C27H29FN10O

> <PUBCHEM_MOLECULAR_WEIGHT>
528.6

> <PUBCHEM_OPENEYE_CAN_SMILES>
CC(C1=CC=C(C=C1)F)(C2=CN=C(N=C2)N3CCN(CC3)C4=NC=NN5C4=CC(=C5)C6=CN(N=C6)CCO)N

> <PUBCHEM_OPENEYE_ISO_SMILES>
C[C@](C1=CC=C(C=C1)F)(C2=CN=C(N=C2)N3CCN(CC3)C4=NC=NN5C4=CC(=C5)C6=CN(N=C6)CCO)N

> <PUBCHEM_CACTVS_TPSA>
127

> <PUBCHEM_MONOISOTOPIC_WEIGHT>
528.25098375

> <PUBCHEM_TOTAL_CHARGE>
0

> <PUBCHEM_HEAVY_ATOM_COUNT>
39

> <PUBCHEM_ATOM_DEF_STEREO_COUNT>
1

> <PUBCHEM_ATOM_UDEF_STEREO_COUNT>
0

> <PUBCHEM_BOND_DEF_STEREO_COUNT>
0

> <PUBCHEM_BOND_UDEF_STEREO_COUNT>
0

> <PUBCHEM_ISOTOPIC_ATOM_COUNT>
0

> <PUBCHEM_COMPONENT_COUNT>
1

> <PUBCHEM_CACTVS_TAUTO_COUNT>
-1

> <PUBCHEM_COORDINATE_TYPE>
1
5
255

> <PUBCHEM_BONDANNOTATIONS>
20  10  6
11  12  8
11  33  8
12  34  8
17  19  8
19  22  8
21  26  8
21  27  8
22  23  8
23  24  8
25  31  8
25  32  8
29  33  8
29  34  8
31  35  8
32  36  8
35  38  8
36  38  8
5  19  8
5  24  8
5  9  8
6  17  8
6  30  8
7  18  8
7  26  8
8  18  8
8  27  8
9  30  8

$$$$
24739943
  -OEChem-11282412102D

 50 53  0     0  0  0  0  0  0999 V2000
    9.7758   -2.7695    0.0000 Cl  0  0  0  0  0  0  0  0  0  0  0  0
   15.8549   -1.3397    0.0000 F   0  0  0  0  0  0  0  0  0  0  0  0
   11.5193   -1.7896    0.0000 O   0  0  0  0  0  0  0  0  0  0  0  0
    3.7320    2.7849    0.0000 O   0  0  0  0  0  0  0  0  0  0  0  0
    8.0785    0.2503    0.0000 N   0  0  0  0  0  0  0  0  0  0  0  0
    8.9962    1.7641    0.0000 N   0  0  0  0  0  0  0  0  0  0  0  0
    8.0901    3.3196    0.0000 N   0  0  0  0  0  0  0  0  0  0  0  0
    4.5981    1.2849    0.0000 N   0  0  0  0  0  0  0  0  0  0  0  0
    7.1962    1.7849    0.0000 C   0  0  0  0  0  0  0  0  0  0  0  0
    8.0901    1.2502    0.0000 C   0  0  0  0  0  0  0  0  0  0  0  0
    7.1962    2.7849    0.0000 C   0  0  0  0  0  0  0  0  0  0  0  0
    6.3301    1.2849    0.0000 C   0  0  0  0  0  0  0  0  0  0  0  0
    8.9387   -0.2597    0.0000 C   0  0  0  0  0  0  0  0  0  0  0  0
    5.4641    1.7849    0.0000 C   0  0  0  0  0  0  0  0  0  0  0  0
    6.3301    3.2849    0.0000 C   0  0  0  0  0  0  0  0  0  0  0  0
    5.4641    2.7849    0.0000 C   0  0  0  0  0  0  0  0  0  0  0  0
   10.6591   -1.2796    0.0000 C   0  0  0  0  0  0  0  0  0  0  0  0
    8.9271   -1.2596    0.0000 C   0  0  0  0  0  0  0  0  0  0  0  0
    9.8105    0.2303    0.0000 C   0  0  0  0  0  0  0  0  0  0  0  0
    9.7873   -1.7696    0.0000 C   0  0  0  0  0  0  0  0  0  0  0  0
   10.6707   -0.2797    0.0000 C   0  0  0  0  0  0  0  0  0  0  0  0
   12.3910   -1.2997    0.0000 C   0  0  0  0  0  0  0  0  0  0  0  0
   13.2512   -1.8096    0.0000 C   0  0  0  0  0  0  0  0  0  0  0  0
    8.9962    2.8057    0.0000 C   0  0  0  0  0  0  0  0  0  0  0  0
   14.1230   -1.3197    0.0000 C   0  0  0  0  0  0  0  0  0  0  0  0
   13.2396   -2.8096    0.0000 C   0  0  0  0  0  0  0  0  0  0  0  0
   14.9831   -1.8297    0.0000 C   0  0  0  0  0  0  0  0  0  0  0  0
   14.0998   -3.3196    0.0000 C   0  0  0  0  0  0  0  0  0  0  0  0
   14.9716   -2.8296    0.0000 C   0  0  0  0  0  0  0  0  0  0  0  0
    3.7320    1.7849    0.0000 C   0  0  0  0  0  0  0  0  0  0  0  0
    2.8660    1.2849    0.0000 C   0  0  0  0  0  0  0  0  0  0  0  0
    2.0000    1.7849    0.0000 C   0  0  0  0  0  0  0  0  0  0  0  0
    6.3301    0.6649    0.0000 H   0  0  0  0  0  0  0  0  0  0  0  0
    7.5380   -0.0535    0.0000 H   0  0  0  0  0  0  0  0  0  0  0  0
    6.3301    3.9049    0.0000 H   0  0  0  0  0  0  0  0  0  0  0  0
    4.9272    3.0949    0.0000 H   0  0  0  0  0  0  0  0  0  0  0  0
    8.3867   -1.5634    0.0000 H   0  0  0  0  0  0  0  0  0  0  0  0
    9.8176    0.8502    0.0000 H   0  0  0  0  0  0  0  0  0  0  0  0
   11.2111    0.0241    0.0000 H   0  0  0  0  0  0  0  0  0  0  0  0
   12.7950   -0.8294    0.0000 H   0  0  0  0  0  0  0  0  0  0  0  0
   11.9980   -0.8201    0.0000 H   0  0  0  0  0  0  0  0  0  0  0  0
    4.5981    0.6649    0.0000 H   0  0  0  0  0  0  0  0  0  0  0  0
    9.5319    3.1178    0.0000 H   0  0  0  0  0  0  0  0  0  0  0  0
   14.1301   -0.6997    0.0000 H   0  0  0  0  0  0  0  0  0  0  0  0
   12.6992   -3.1134    0.0000 H   0  0  0  0  0  0  0  0  0  0  0  0
   14.0927   -3.9395    0.0000 H   0  0  0  0  0  0  0  0  0  0  0  0
   15.5049   -3.1458    0.0000 H   0  0  0  0  0  0  0  0  0  0  0  0
    2.8660    0.6649    0.0000 H   0  0  0  0  0  0  0  0  0  0  0  0
    2.0000    2.4049    0.0000 H   0  0  0  0  0  0  0  0  0  0  0  0
    1.4631    1.4749    0.0000 H   0  0  0  0  0  0  0  0  0  0  0  0
  1 20  1  0  0  0  0
  2 27  1  0  0  0  0
  3 17  1  0  0  0  0
  3 22  1  0  0  0  0
  4 30  2  0  0  0  0
  5 10  1  0  0  0  0
  5 13  1  0  0  0  0
  5 34  1  0  0  0  0
  6 10  2  0  0  0  0
  6 24  1  0  0  0  0
  7 11  1  0  0  0  0
  7 24  2  0  0  0  0
  8 14  1  0  0  0  0
  8 30  1  0  0  0  0
  8 42  1  0  0  0  0
  9 10  1  0  0  0  0
  9 11  2  0  0  0  0
  9 12  1  0  0  0  0
 11 15  1  0  0  0  0
 12 14  2  0  0  0  0
 12 33  1  0  0  0  0
 13 18  2  0  0  0  0
 13 19  1  0  0  0  0
 14 16  1  0  0  0  0
 15 16  2  0  0  0  0
 15 35  1  0  0  0  0
 16 36  1  0  0  0  0
 17 20  2  0  0  0  0
 17 21  1  0  0  0  0
 18 20  1  0  0  0  0
 18 37  1  0  0  0  0
 19 21  2  0  0  0  0
 19 38  1  0  0  0  0
 21 39  1  0  0  0  0
 22 23  1  0  0  0  0
 22 40  1  0  0  0  0
 22 41  1  0  0  0  0
 23 25  2  0  0  0  0
 23 26  1  0  0  0  0
 24 43  1  0  0  0  0
 25 27  1  0  0  0  0
 25 44  1  0  0  0  0
 26 28  2  0  0  0  0
 26 45  1  0  0  0  0
 27 29  2  0  0  0  0
 28 29  1  0  0  0  0
 28 46  1  0  0  0  0
 29 47  1  0  0  0  0
 30 31  1  0  0  0  0
 31 32  2  0  0  0  0
 31 48  1  0  0  0  0
 32 49  1  0  0  0  0
 32 50  1  0  0  0  0
M  END
> <PUBCHEM_COMPOUND_CID>
24739943

> <PUBCHEM_COMPOUND_CANONICALIZED>
1

> <PUBCHEM_CACTVS_COMPLEXITY>
641

> <PUBCHEM_CACTVS_HBOND_ACCEPTOR>
6

> <PUBCHEM_CACTVS_HBOND_DONOR>
2

> <PUBCHEM_CACTVS_ROTATABLE_BOND>
7

> <PUBCHEM_CACTVS_SUBSKEYS>
AAADceB7sQAEAAAAAAAAAAAAAAAAAAAAAAA8YMEAAAAAAACx9AAAHwIQAAAADA6hni419vbIFACoAydzdACCiCkxJ+AJ2CA+b9iMLuPF+9uGPCjs1BPI6KewwCAOAECAQAICCAAAgQCABAQQAAAAAAAAAA==

> <PUBCHEM_IUPAC_OPENEYE_NAME>
N-[4-[3-chloro-4-[(3-fluorophenyl)methoxy]anilino]quinazolin-6-yl]prop-2-enamide

> <PUBCHEM_IUPAC_CAS_NAME>
N-[4-[3-chloro-4-[(3-fluorophenyl)methoxy]anilino]-6-quinazolinyl]-2-propenamide

> <PUBCHEM_IUPAC_NAME_MARKUP>
<I>N</I>-[4-[3-chloro-4-[(3-fluorophenyl)methoxy]anilino]quinazolin-6-yl]prop-2-enamide

> <PUBCHEM_IUPAC_NAME>
N-[4-[3-chloro-4-[(3-fluorophenyl)methoxy]anilino]quinazolin-6-yl]prop-2-enamide

> <PUBCHEM_IUPAC_SYSTEMATIC_NAME>
N-[4-[[3-chloranyl-4-[(3-fluorophenyl)methoxy]phenyl]amino]quinazolin-6-yl]prop-2-enamide

> <PUBCHEM_IUPAC_TRADITIONAL_NAME>
N-[4-[3-chloro-4-(3-fluorobenzyl)oxy-anilino]quinazolin-6-yl]acrylamide

> <PUBCHEM_IUPAC_INCHI>
InChI=1S/C24H18ClFN4O2/c1-2-23(31)29-17-6-8-21-19(11-17)24(28-14-27-21)30-18-7-9-22(20(25)12-18)32-13-15-4-3-5-16(26)10-15/h2-12,14H,1,13H2,(H,29,31)(H,27,28,30)

> <PUBCHEM_IUPAC_INCHIKEY>
MVZGYPSXNDCANY-UHFFFAOYSA-N

> <PUBCHEM_XLOGP3_AA>
5.4

> <PUBCHEM_EXACT_MASS>
448.1102317

> <PUBCHEM_MOLECULAR_FORMULA>
C24H18ClFN4O2

> <PUBCHEM_MOLECULAR_WEIGHT>
448.9

> <PUBCHEM_OPENEYE_CAN_SMILES>
C=CC(=O)NC1=CC2=C(C=C1)N=CN=C2NC3=CC(=C(C=C3)OCC4=CC(=CC=C4)F)Cl

> <PUBCHEM_OPENEYE_ISO_SMILES>
C=CC(=O)NC1=CC2=C(C=C1)N=CN=C2NC3=CC(=C(C=C3)OCC4=CC(=CC=C4)F)Cl

> <PUBCHEM_CACTVS_TPSA>
76.1

> <PUBCHEM_MONOISOTOPIC_WEIGHT>
448.1102317

> <PUBCHEM_TOTAL_CHARGE>
0

> <PUBCHEM_HEAVY_ATOM_COUNT>
32

> <PUBCHEM_ATOM_DEF_STEREO_COUNT>
0

> <PUBCHEM_ATOM_UDEF_STEREO_COUNT>
0

> <PUBCHEM_BOND_DEF_STEREO_COUNT>
0

> <PUBCHEM_BOND_UDEF_STEREO_COUNT>
0

> <PUBCHEM_ISOTOPIC_ATOM_COUNT>
0

> <PUBCHEM_COMPONENT_COUNT>
1

> <PUBCHEM_CACTVS_TAUTO_COUNT>
6

> <PUBCHEM_COORDINATE_TYPE>
1
5
255

> <PUBCHEM_BONDANNOTATIONS>
11  15  8
12  14  8
13  18  8
13  19  8
14  16  8
15  16  8
17  20  8
17  21  8
18  20  8
19  21  8
23  25  8
23  26  8
25  27  8
26  28  8
27  29  8
28  29  8
6  10  8
6  24  8
7  11  8
7  24  8
9  10  8
9  11  8
9  12  8

$$$$
24785538
  -OEChem-11282412102D

 58 63  0     1  0  0  0  0  0999 V2000
    2.0000    0.7393    0.0000 F   0  0  0  0  0  0  0  0  0  0  0  0
    6.1316   -0.6500    0.0000 O   0  0  0  0  0  0  0  0  0  0  0  0
    7.5803   -2.7040    0.0000 N   0  0  3  0  0  0  0  0  0  0  0  0
    6.8637    1.1324    0.0000 N   0  0  0  0  0  0  0  0  0  0  0  0
    4.9726   -1.9372    0.0000 N   0  0  0  0  0  0  0  0  0  0  0  0
    8.4464   -1.2040    0.0000 N   0  0  0  0  0  0  0  0  0  0  0  0
    9.3124   -2.7040    0.0000 N   0  0  0  0  0  0  0  0  0  0  0  0
    7.5328    0.3892    0.0000 N   0  0  0  0  0  0  0  0  0  0  0  0
    9.3124    0.2960    0.0000 N   0  0  0  0  0  0  0  0  0  0  0  0
   10.1784   -2.2040    0.0000 N   0  0  0  0  0  0  0  0  0  0  0  0
    3.6942    0.3792    0.0000 N   0  0  0  0  0  0  0  0  0  0  0  0
    6.9569    2.9120    0.0000 C   0  0  0  0  0  0  0  0  0  0  0  0
    6.6668   -2.2973    0.0000 C   0  0  2  0  0  0  0  0  0  0  0  0
    7.0615    3.9065    0.0000 C   0  0  0  0  0  0  0  0  0  0  0  0
    6.1479    3.4997    0.0000 C   0  0  0  0  0  0  0  0  0  0  0  0
    5.9976   -3.0404    0.0000 C   0  0  0  0  0  0  0  0  0  0  0  0
    6.4976   -3.9065    0.0000 C   0  0  0  0  0  0  0  0  0  0  0  0
    7.4758   -3.6986    0.0000 C   0  0  0  0  0  0  0  0  0  0  0  0
    7.3637    1.9984    0.0000 C   0  0  0  0  0  0  0  0  0  0  0  0
    7.0735   -1.3838    0.0000 C   0  0  0  0  0  0  0  0  0  0  0  0
    5.9236   -1.6282    0.0000 C   0  0  0  0  0  0  0  0  0  0  0  0
    8.4464   -2.2040    0.0000 C   0  0  0  0  0  0  0  0  0  0  0  0
    8.3418    1.7905    0.0000 C   0  0  0  0  0  0  0  0  0  0  0  0
    8.4464    0.7960    0.0000 C   0  0  0  0  0  0  0  0  0  0  0  0
    9.3124   -0.7040    0.0000 C   0  0  0  0  0  0  0  0  0  0  0  0
   10.1784   -1.2040    0.0000 C   0  0  0  0  0  0  0  0  0  0  0  0
    4.2294   -1.2680    0.0000 C   0  0  0  0  0  0  0  0  0  0  0  0
   11.1246   -0.8993    0.0000 C   0  0  0  0  0  0  0  0  0  0  0  0
   11.1246   -2.5088    0.0000 C   0  0  0  0  0  0  0  0  0  0  0  0
   11.7082   -1.7040    0.0000 C   0  0  0  0  0  0  0  0  0  0  0  0
    3.2784   -1.5771    0.0000 C   0  0  0  0  0  0  0  0  0  0  0  0
    4.4374   -0.2899    0.0000 C   0  0  0  0  0  0  0  0  0  0  0  0
    2.5352   -0.9079    0.0000 C   0  0  0  0  0  0  0  0  0  0  0  0
    2.7431    0.0702    0.0000 C   0  0  0  0  0  0  0  0  0  0  0  0
    6.4751    2.5218    0.0000 H   0  0  0  0  0  0  0  0  0  0  0  0
    7.6800    3.9497    0.0000 H   0  0  0  0  0  0  0  0  0  0  0  0
    6.9115    4.5080    0.0000 H   0  0  0  0  0  0  0  0  0  0  0  0
    5.8012    4.0137    0.0000 H   0  0  0  0  0  0  0  0  0  0  0  0
    5.7019    3.0690    0.0000 H   0  0  0  0  0  0  0  0  0  0  0  0
    5.5828   -2.5797    0.0000 H   0  0  0  0  0  0  0  0  0  0  0  0
    5.4961   -3.4049    0.0000 H   0  0  0  0  0  0  0  0  0  0  0  0
    5.9312   -4.1586    0.0000 H   0  0  0  0  0  0  0  0  0  0  0  0
    6.6892   -4.4961    0.0000 H   0  0  0  0  0  0  0  0  0  0  0  0
    7.5406   -4.3152    0.0000 H   0  0  0  0  0  0  0  0  0  0  0  0
    8.0958   -3.6986    0.0000 H   0  0  0  0  0  0  0  0  0  0  0  0
    7.6399   -1.6359    0.0000 H   0  0  0  0  0  0  0  0  0  0  0  0
    7.3257   -0.8174    0.0000 H   0  0  0  0  0  0  0  0  0  0  0  0
    6.5071   -1.1316    0.0000 H   0  0  0  0  0  0  0  0  0  0  0  0
    8.8026    2.2054    0.0000 H   0  0  0  0  0  0  0  0  0  0  0  0
    6.2471    1.0676    0.0000 H   0  0  0  0  0  0  0  0  0  0  0  0
    4.8437   -2.5436    0.0000 H   0  0  0  0  0  0  0  0  0  0  0  0
    9.8493    0.6060    0.0000 H   0  0  0  0  0  0  0  0  0  0  0  0
   11.3172   -0.3100    0.0000 H   0  0  0  0  0  0  0  0  0  0  0  0
   11.3172   -3.0981    0.0000 H   0  0  0  0  0  0  0  0  0  0  0  0
   12.3282   -1.7040    0.0000 H   0  0  0  0  0  0  0  0  0  0  0  0
    3.1495   -2.1835    0.0000 H   0  0  0  0  0  0  0  0  0  0  0  0
    5.0270   -0.0983    0.0000 H   0  0  0  0  0  0  0  0  0  0  0  0
    1.9456   -1.0995    0.0000 H   0  0  0  0  0  0  0  0  0  0  0  0
  1 34  1  0  0  0  0
  2 21  2  0  0  0  0
  3 13  1  0  0  0  0
  3 18  1  0  0  0  0
  3 22  1  0  0  0  0
  4  8  1  0  0  0  0
  4 19  1  0  0  0  0
  4 50  1  0  0  0  0
  5 21  1  0  0  0  0
  5 27  1  0  0  0  0
  5 51  1  0  0  0  0
  6 22  1  0  0  0  0
  6 25  2  0  0  0  0
  7 10  1  0  0  0  0
  7 22  2  0  0  0  0
  8 24  2  0  0  0  0
  9 24  1  0  0  0  0
  9 25  1  0  0  0  0
  9 52  1  0  0  0  0
 10 26  1  0  0  0  0
 10 29  1  0  0  0  0
 11 32  1  0  0  0  0
 11 34  2  0  0  0  0
 12 14  1  0  0  0  0
 12 15  1  0  0  0  0
 12 19  1  0  0  0  0
 12 35  1  0  0  0  0
 13 16  1  0  0  0  0
 13 20  1  6  0  0  0
 13 21  1  0  0  0  0
 14 15  1  0  0  0  0
 14 36  1  0  0  0  0
 14 37  1  0  0  0  0
 15 38  1  0  0  0  0
 15 39  1  0  0  0  0
 16 17  1  0  0  0  0
 16 40  1  0  0  0  0
 16 41  1  0  0  0  0
 17 18  1  0  0  0  0
 17 42  1  0  0  0  0
 17 43  1  0  0  0  0
 18 44  1  0  0  0  0
 18 45  1  0  0  0  0
 19 23  2  0  0  0  0
 20 46  1  0  0  0  0
 20 47  1  0  0  0  0
 20 48  1  0  0  0  0
 23 24  1  0  0  0  0
 23 49  1  0  0  0  0
 25 26  1  0  0  0  0
 26 28  2  0  0  0  0
 27 31  1  0  0  0  0
 27 32  2  0  0  0  0
 28 30  1  0  0  0  0
 28 53  1  0  0  0  0
 29 30  2  0  0  0  0
 29 54  1  0  0  0  0
 30 55  1  0  0  0  0
 31 33  2  0  0  0  0
 31 56  1  0  0  0  0
 32 57  1  0  0  0  0
 33 34  1  0  0  0  0
 33 58  1  0  0  0  0
M  END
> <PUBCHEM_COMPOUND_CID>
24785538

> <PUBCHEM_COMPOUND_CANONICALIZED>
1

> <PUBCHEM_CACTVS_COMPLEXITY>
756

> <PUBCHEM_CACTVS_HBOND_ACCEPTOR>
8

> <PUBCHEM_CACTVS_HBOND_DONOR>
3

> <PUBCHEM_CACTVS_ROTATABLE_BOND>
6

> <PUBCHEM_CACTVS_SUBSKEYS>
AAADceB74QAAAAAAAAAAAAAAGAAAAWLFgAAsWAAAAAAAAFgB/gAAHwAYAAAADYjBlgw/8LfrEACqATd3dACShC8xkqAd+SG4dJiIaPLA2fGUpAh4nALIyCcYAQAMAAAAAAAAAAAAAAAAAAAAAAAAAAAAAA==

> <PUBCHEM_IUPAC_OPENEYE_NAME>
(2S)-1-[4-[(5-cyclopropyl-1H-pyrazol-3-yl)amino]pyrrolo[2,1-f][1,2,4]triazin-2-yl]-N-(6-fluoro-3-pyridyl)-2-methyl-pyrrolidine-2-carboxamide

> <PUBCHEM_IUPAC_CAS_NAME>
(2S)-1-[4-[(5-cyclopropyl-1H-pyrazol-3-yl)amino]-2-pyrrolo[2,1-f][1,2,4]triazinyl]-N-(6-fluoro-3-pyridinyl)-2-methyl-2-pyrrolidinecarboxamide

> <PUBCHEM_IUPAC_NAME_MARKUP>
(2<I>S</I>)-1-[4-[(5-cyclopropyl-1<I>H</I>-pyrazol-3-yl)amino]pyrrolo[2,1-f][1,2,4]triazin-2-yl]-<I>N</I>-(6-fluoropyridin-3-yl)-2-methylpyrrolidine-2-carboxamide

> <PUBCHEM_IUPAC_NAME>
(2S)-1-[4-[(5-cyclopropyl-1H-pyrazol-3-yl)amino]pyrrolo[2,1-f][1,2,4]triazin-2-yl]-N-(6-fluoropyridin-3-yl)-2-methylpyrrolidine-2-carboxamide

> <PUBCHEM_IUPAC_SYSTEMATIC_NAME>
(2S)-1-[4-[(5-cyclopropyl-1H-pyrazol-3-yl)amino]pyrrolo[2,1-f][1,2,4]triazin-2-yl]-N-(6-fluoranylpyridin-3-yl)-2-methyl-pyrrolidine-2-carboxamide

> <PUBCHEM_IUPAC_TRADITIONAL_NAME>
(2S)-1-[4-[(5-cyclopropyl-1H-pyrazol-3-yl)amino]pyrrolo[2,1-f][1,2,4]triazin-2-yl]-N-(6-fluoro-3-pyridyl)-2-methyl-pyrrolidine-2-carboxamide

> <PUBCHEM_IUPAC_INCHI>
InChI=1S/C23H24FN9O/c1-23(21(34)26-15-7-8-18(24)25-13-15)9-3-10-32(23)22-28-20(17-4-2-11-33(17)31-22)27-19-12-16(29-30-19)14-5-6-14/h2,4,7-8,11-14H,3,5-6,9-10H2,1H3,(H,26,34)(H2,27,28,29,30,31)/t23-/m0/s1

> <PUBCHEM_IUPAC_INCHIKEY>
LQVXSNNAFNGRAH-QHCPKHFHSA-N

> <PUBCHEM_XLOGP3_AA>
2.9

> <PUBCHEM_EXACT_MASS>
461.20878459

> <PUBCHEM_MOLECULAR_FORMULA>
C23H24FN9O

> <PUBCHEM_MOLECULAR_WEIGHT>
461.5

> <PUBCHEM_OPENEYE_CAN_SMILES>
CC1(CCCN1C2=NN3C=CC=C3C(=N2)NC4=NNC(=C4)C5CC5)C(=O)NC6=CN=C(C=C6)F

> <PUBCHEM_OPENEYE_ISO_SMILES>
C[C@]1(CCCN1C2=NN3C=CC=C3C(=N2)NC4=NNC(=C4)C5CC5)C(=O)NC6=CN=C(C=C6)F

> <PUBCHEM_CACTVS_TPSA>
116

> <PUBCHEM_MONOISOTOPIC_WEIGHT>
461.20878459

> <PUBCHEM_TOTAL_CHARGE>
0

> <PUBCHEM_HEAVY_ATOM_COUNT>
34

> <PUBCHEM_ATOM_DEF_STEREO_COUNT>
1

> <PUBCHEM_ATOM_UDEF_STEREO_COUNT>
0

> <PUBCHEM_BOND_DEF_STEREO_COUNT>
0

> <PUBCHEM_BOND_UDEF_STEREO_COUNT>
0

> <PUBCHEM_ISOTOPIC_ATOM_COUNT>
0

> <PUBCHEM_COMPONENT_COUNT>
1

> <PUBCHEM_CACTVS_TAUTO_COUNT>
-1

> <PUBCHEM_COORDINATE_TYPE>
1
5
255

> <PUBCHEM_BONDANNOTATIONS>
10  26  8
10  29  8
11  32  8
11  34  8
13  20  6
19  23  8
23  24  8
25  26  8
26  28  8
27  31  8
27  32  8
28  30  8
29  30  8
31  33  8
33  34  8
4  19  8
4  8  8
6  22  8
6  25  8
7  10  8
7  22  8
8  24  8

$$$$
25073775
  -OEChem-11282412102D

 62 65  0     0  0  0  0  0  0999 V2000
    3.3660    2.6160    0.0000 F   0  0  0  0  0  0  0  0  0  0  0  0
    2.0000    2.2500    0.0000 F   0  0  0  0  0  0  0  0  0  0  0  0
    2.3660    0.8840    0.0000 F   0  0  0  0  0  0  0  0  0  0  0  0
    6.3301   -6.2500    0.0000 O   0  0  0  0  0  0  0  0  0  0  0  0
    4.5981   -1.2500    0.0000 O   0  0  0  0  0  0  0  0  0  0  0  0
    3.7320    4.2500    0.0000 O   0  0  0  0  0  0  0  0  0  0  0  0
    6.3301   -4.2500    0.0000 N   0  0  0  0  0  0  0  0  0  0  0  0
    6.3301   -0.2500    0.0000 N   0  0  0  0  0  0  0  0  0  0  0  0
    4.5981    2.7500    0.0000 N   0  0  0  0  0  0  0  0  0  0  0  0
    4.5981   -0.2500    0.0000 N   0  0  0  0  0  0  0  0  0  0  0  0
    4.5981    5.7500    0.0000 N   0  0  0  0  0  0  0  0  0  0  0  0
    7.1962   -4.7500    0.0000 C   0  0  0  0  0  0  0  0  0  0  0  0
    5.4641   -4.7500    0.0000 C   0  0  0  0  0  0  0  0  0  0  0  0
    7.1962   -5.7500    0.0000 C   0  0  0  0  0  0  0  0  0  0  0  0
    5.4641   -5.7500    0.0000 C   0  0  0  0  0  0  0  0  0  0  0  0
    6.3301   -3.2500    0.0000 C   0  0  0  0  0  0  0  0  0  0  0  0
    5.4641   -2.7500    0.0000 C   0  0  0  0  0  0  0  0  0  0  0  0
    7.1962   -2.7500    0.0000 C   0  0  0  0  0  0  0  0  0  0  0  0
    5.4641   -1.7500    0.0000 C   0  0  0  0  0  0  0  0  0  0  0  0
    6.3301   -1.2500    0.0000 C   0  0  0  0  0  0  0  0  0  0  0  0
    7.1962   -1.7500    0.0000 C   0  0  0  0  0  0  0  0  0  0  0  0
    5.4641    0.2500    0.0000 C   0  0  0  0  0  0  0  0  0  0  0  0
    4.5981    1.7500    0.0000 C   0  0  0  0  0  0  0  0  0  0  0  0
    5.4641    1.2500    0.0000 C   0  0  0  0  0  0  0  0  0  0  0  0
    3.7320    1.2500    0.0000 C   0  0  0  0  0  0  0  0  0  0  0  0
    5.4641    3.2500    0.0000 C   0  0  0  0  0  0  0  0  0  0  0  0
    3.7320    0.2500    0.0000 C   0  0  0  0  0  0  0  0  0  0  0  0
    5.4641    4.2500    0.0000 C   0  0  0  0  0  0  0  0  0  0  0  0
    2.8660    1.7500    0.0000 C   0  0  0  0  0  0  0  0  0  0  0  0
    3.7320   -1.7500    0.0000 C   0  0  0  0  0  0  0  0  0  0  0  0
    6.3301    2.7500    0.0000 C   0  0  0  0  0  0  0  0  0  0  0  0
    6.3301    4.7500    0.0000 C   0  0  0  0  0  0  0  0  0  0  0  0
    7.1962    3.2500    0.0000 C   0  0  0  0  0  0  0  0  0  0  0  0
    4.5981    4.7500    0.0000 C   0  0  0  0  0  0  0  0  0  0  0  0
    7.1962    4.2500    0.0000 C   0  0  0  0  0  0  0  0  0  0  0  0
    5.4641    6.2500    0.0000 C   0  0  0  0  0  0  0  0  0  0  0  0
    7.8067   -4.8577    0.0000 H   0  0  0  0  0  0  0  0  0  0  0  0
    7.4082   -4.1674    0.0000 H   0  0  0  0  0  0  0  0  0  0  0  0
    5.2520   -4.1674    0.0000 H   0  0  0  0  0  0  0  0  0  0  0  0
    4.8535   -4.8577    0.0000 H   0  0  0  0  0  0  0  0  0  0  0  0
    7.4082   -6.3326    0.0000 H   0  0  0  0  0  0  0  0  0  0  0  0
    7.8067   -5.6423    0.0000 H   0  0  0  0  0  0  0  0  0  0  0  0
    4.8535   -5.6423    0.0000 H   0  0  0  0  0  0  0  0  0  0  0  0
    5.2520   -6.3326    0.0000 H   0  0  0  0  0  0  0  0  0  0  0  0
    4.9272   -3.0600    0.0000 H   0  0  0  0  0  0  0  0  0  0  0  0
    7.7331   -3.0600    0.0000 H   0  0  0  0  0  0  0  0  0  0  0  0
    7.7331   -1.4400    0.0000 H   0  0  0  0  0  0  0  0  0  0  0  0
    6.8671    0.0600    0.0000 H   0  0  0  0  0  0  0  0  0  0  0  0
    6.0010    1.5600    0.0000 H   0  0  0  0  0  0  0  0  0  0  0  0
    4.0611    3.0600    0.0000 H   0  0  0  0  0  0  0  0  0  0  0  0
    3.1951   -0.0600    0.0000 H   0  0  0  0  0  0  0  0  0  0  0  0
    3.4220   -1.2131    0.0000 H   0  0  0  0  0  0  0  0  0  0  0  0
    3.1951   -2.0600    0.0000 H   0  0  0  0  0  0  0  0  0  0  0  0
    4.0420   -2.2869    0.0000 H   0  0  0  0  0  0  0  0  0  0  0  0
    6.3301    2.1300    0.0000 H   0  0  0  0  0  0  0  0  0  0  0  0
    6.3301    5.3700    0.0000 H   0  0  0  0  0  0  0  0  0  0  0  0
    7.7331    2.9400    0.0000 H   0  0  0  0  0  0  0  0  0  0  0  0
    7.7331    4.5600    0.0000 H   0  0  0  0  0  0  0  0  0  0  0  0
    4.0611    6.0600    0.0000 H   0  0  0  0  0  0  0  0  0  0  0  0
    5.7741    5.7131    0.0000 H   0  0  0  0  0  0  0  0  0  0  0  0
    6.0010    6.5600    0.0000 H   0  0  0  0  0  0  0  0  0  0  0  0
    5.1541    6.7869    0.0000 H   0  0  0  0  0  0  0  0  0  0  0  0
  1 29  1  0  0  0  0
  2 29  1  0  0  0  0
  3 29  1  0  0  0  0
  4 14  1  0  0  0  0
  4 15  1  0  0  0  0
  5 19  1  0  0  0  0
  5 30  1  0  0  0  0
  6 34  2  0  0  0  0
  7 12  1  0  0  0  0
  7 13  1  0  0  0  0
  7 16  1  0  0  0  0
  8 20  1  0  0  0  0
  8 22  1  0  0  0  0
  8 48  1  0  0  0  0
  9 23  1  0  0  0  0
  9 26  1  0  0  0  0
  9 50  1  0  0  0  0
 10 22  2  0  0  0  0
 10 27  1  0  0  0  0
 11 34  1  0  0  0  0
 11 36  1  0  0  0  0
 11 59  1  0  0  0  0
 12 14  1  0  0  0  0
 12 37  1  0  0  0  0
 12 38  1  0  0  0  0
 13 15  1  0  0  0  0
 13 39  1  0  0  0  0
 13 40  1  0  0  0  0
 14 41  1  0  0  0  0
 14 42  1  0  0  0  0
 15 43  1  0  0  0  0
 15 44  1  0  0  0  0
 16 17  2  0  0  0  0
 16 18  1  0  0  0  0
 17 19  1  0  0  0  0
 17 45  1  0  0  0  0
 18 21  2  0  0  0  0
 18 46  1  0  0  0  0
 19 20  2  0  0  0  0
 20 21  1  0  0  0  0
 21 47  1  0  0  0  0
 22 24  1  0  0  0  0
 23 24  2  0  0  0  0
 23 25  1  0  0  0  0
 24 49  1  0  0  0  0
 25 27  2  0  0  0  0
 25 29  1  0  0  0  0
 26 28  1  0  0  0  0
 26 31  2  0  0  0  0
 27 51  1  0  0  0  0
 28 32  2  0  0  0  0
 28 34  1  0  0  0  0
 30 52  1  0  0  0  0
 30 53  1  0  0  0  0
 30 54  1  0  0  0  0
 31 33  1  0  0  0  0
 31 55  1  0  0  0  0
 32 35  1  0  0  0  0
 32 56  1  0  0  0  0
 33 35  2  0  0  0  0
 33 57  1  0  0  0  0
 35 58  1  0  0  0  0
 36 60  1  0  0  0  0
 36 61  1  0  0  0  0
 36 62  1  0  0  0  0
M  END
> <PUBCHEM_COMPOUND_CID>
25073775

> <PUBCHEM_COMPOUND_CANONICALIZED>
1

> <PUBCHEM_CACTVS_COMPLEXITY>
709

> <PUBCHEM_CACTVS_HBOND_ACCEPTOR>
10

> <PUBCHEM_CACTVS_HBOND_DONOR>
3

> <PUBCHEM_CACTVS_ROTATABLE_BOND>
7

> <PUBCHEM_CACTVS_SUBSKEYS>
AAADceB7sYAAAAAAAAAAAAAAAAAAAAAAAAA8eIEAAAAAAAAB0AAAHwAQAAAADAzhmhY/9pPIFACoAjd3dACCiCk1IiAJ2KE/bNiOJnrE/duHNahu0hvY6eeY2AOOAACAAgACEAAAAQAEAAQgAAAAAAAAAA==

> <PUBCHEM_IUPAC_OPENEYE_NAME>
2-[[2-(2-methoxy-4-morpholino-anilino)-5-(trifluoromethyl)-4-pyridyl]amino]-N-methyl-benzamide

> <PUBCHEM_IUPAC_CAS_NAME>
2-[[2-[2-methoxy-4-(4-morpholinyl)anilino]-5-(trifluoromethyl)-4-pyridinyl]amino]-N-methylbenzamide

> <PUBCHEM_IUPAC_NAME_MARKUP>
2-[[2-(2-methoxy-4-morpholin-4-ylanilino)-5-(trifluoromethyl)pyridin-4-yl]amino]-<I>N</I>-methylbenzamide

> <PUBCHEM_IUPAC_NAME>
2-[[2-(2-methoxy-4-morpholin-4-ylanilino)-5-(trifluoromethyl)pyridin-4-yl]amino]-N-methylbenzamide

> <PUBCHEM_IUPAC_SYSTEMATIC_NAME>
2-[[2-[(2-methoxy-4-morpholin-4-yl-phenyl)amino]-5-(trifluoromethyl)pyridin-4-yl]amino]-N-methyl-benzamide

> <PUBCHEM_IUPAC_TRADITIONAL_NAME>
2-[[2-(2-methoxy-4-morpholino-anilino)-5-(trifluoromethyl)-4-pyridyl]amino]-N-methyl-benzamide

> <PUBCHEM_IUPAC_INCHI>
InChI=1S/C25H26F3N5O3/c1-29-24(34)17-5-3-4-6-19(17)31-21-14-23(30-15-18(21)25(26,27)28)32-20-8-7-16(13-22(20)35-2)33-9-11-36-12-10-33/h3-8,13-15H,9-12H2,1-2H3,(H,29,34)(H2,30,31,32)

> <PUBCHEM_IUPAC_INCHIKEY>
IGUBBWJDMLCRIK-UHFFFAOYSA-N

> <PUBCHEM_XLOGP3_AA>
4.7

> <PUBCHEM_EXACT_MASS>
501.19877419

> <PUBCHEM_MOLECULAR_FORMULA>
C25H26F3N5O3

> <PUBCHEM_MOLECULAR_WEIGHT>
501.5

> <PUBCHEM_OPENEYE_CAN_SMILES>
CNC(=O)C1=CC=CC=C1NC2=CC(=NC=C2C(F)(F)F)NC3=C(C=C(C=C3)N4CCOCC4)OC

> <PUBCHEM_OPENEYE_ISO_SMILES>
CNC(=O)C1=CC=CC=C1NC2=CC(=NC=C2C(F)(F)F)NC3=C(C=C(C=C3)N4CCOCC4)OC

> <PUBCHEM_CACTVS_TPSA>
87.8

> <PUBCHEM_MONOISOTOPIC_WEIGHT>
501.19877419

> <PUBCHEM_TOTAL_CHARGE>
0

> <PUBCHEM_HEAVY_ATOM_COUNT>
36

> <PUBCHEM_ATOM_DEF_STEREO_COUNT>
0

> <PUBCHEM_ATOM_UDEF_STEREO_COUNT>
0

> <PUBCHEM_BOND_DEF_STEREO_COUNT>
0

> <PUBCHEM_BOND_UDEF_STEREO_COUNT>
0

> <PUBCHEM_ISOTOPIC_ATOM_COUNT>
0

> <PUBCHEM_COMPONENT_COUNT>
1

> <PUBCHEM_CACTVS_TAUTO_COUNT>
-1

> <PUBCHEM_COORDINATE_TYPE>
1
5
255

> <PUBCHEM_BONDANNOTATIONS>
10  22  8
10  27  8
16  17  8
16  18  8
17  19  8
18  21  8
19  20  8
20  21  8
22  24  8
23  24  8
23  25  8
25  27  8
26  28  8
26  31  8
28  32  8
31  33  8
32  35  8
33  35  8

$$$$
42642645
  -OEChem-11282412102D

 80 85  0     0  0  0  0  0  0999 V2000
    8.9214    1.2374    0.0000 F   0  0  0  0  0  0  0  0  0  0  0  0
   14.0363    8.2970    0.0000 F   0  0  0  0  0  0  0  0  0  0  0  0
   11.5020    2.7674    0.0000 O   0  0  0  0  0  0  0  0  0  0  0  0
   12.3506    4.2773    0.0000 O   0  0  0  0  0  0  0  0  0  0  0  0
    2.0000   -7.7970    0.0000 O   0  0  0  0  0  0  0  0  0  0  0  0
    8.9446   -0.7624    0.0000 O   0  0  0  0  0  0  0  0  0  0  0  0
    5.4641   -3.7970    0.0000 O   0  0  0  0  0  0  0  0  0  0  0  0
    5.4641   -1.7970    0.0000 O   0  0  0  0  0  0  0  0  0  0  0  0
   12.3853    1.2775    0.0000 N   0  0  0  0  0  0  0  0  0  0  0  0
   14.0825    4.2973    0.0000 N   0  0  0  0  0  0  0  0  0  0  0  0
    3.7320   -6.7970    0.0000 N   0  0  0  0  0  0  0  0  0  0  0  0
    8.9561   -3.8317    0.0000 N   0  0  0  0  0  0  0  0  0  0  0  0
   13.2339    2.7874    0.0000 C   0  0  0  0  0  0  0  0  0  0  0  0
   13.7439    1.9272    0.0000 C   0  0  0  0  0  0  0  0  0  0  0  0
   14.2339    2.7990    0.0000 C   0  0  0  0  0  0  0  0  0  0  0  0
   12.3737    2.2774    0.0000 C   0  0  0  0  0  0  0  0  0  0  0  0
   13.2224    3.7873    0.0000 C   0  0  0  0  0  0  0  0  0  0  0  0
   11.5251    0.7675    0.0000 C   0  0  0  0  0  0  0  0  0  0  0  0
   14.0710    5.2972    0.0000 C   0  0  0  0  0  0  0  0  0  0  0  0
   10.6534    1.2574    0.0000 C   0  0  0  0  0  0  0  0  0  0  0  0
   11.5367   -0.2324    0.0000 C   0  0  0  0  0  0  0  0  0  0  0  0
   14.9312    5.8072    0.0000 C   0  0  0  0  0  0  0  0  0  0  0  0
   13.1992    5.7872    0.0000 C   0  0  0  0  0  0  0  0  0  0  0  0
    9.7932    0.7475    0.0000 C   0  0  0  0  0  0  0  0  0  0  0  0
   10.6765   -0.7424    0.0000 C   0  0  0  0  0  0  0  0  0  0  0  0
   14.9196    6.8072    0.0000 C   0  0  0  0  0  0  0  0  0  0  0  0
   13.1877    6.7871    0.0000 C   0  0  0  0  0  0  0  0  0  0  0  0
    3.7320   -7.7970    0.0000 C   0  0  0  0  0  0  0  0  0  0  0  0
    2.8660   -6.2970    0.0000 C   0  0  0  0  0  0  0  0  0  0  0  0
    4.5981   -6.2970    0.0000 C   0  0  0  0  0  0  0  0  0  0  0  0
    9.8047   -0.2525    0.0000 C   0  0  0  0  0  0  0  0  0  0  0  0
    2.8660   -8.2970    0.0000 C   0  0  0  0  0  0  0  0  0  0  0  0
    2.0000   -6.7970    0.0000 C   0  0  0  0  0  0  0  0  0  0  0  0
   14.0479    7.2971    0.0000 C   0  0  0  0  0  0  0  0  0  0  0  0
    4.5981   -5.2970    0.0000 C   0  0  0  0  0  0  0  0  0  0  0  0
    5.4641   -4.7970    0.0000 C   0  0  0  0  0  0  0  0  0  0  0  0
    8.9561   -1.7624    0.0000 C   0  0  0  0  0  0  0  0  0  0  0  0
    8.0622   -2.2970    0.0000 C   0  0  0  0  0  0  0  0  0  0  0  0
    6.3301   -3.2970    0.0000 C   0  0  0  0  0  0  0  0  0  0  0  0
    8.0622   -3.2970    0.0000 C   0  0  0  0  0  0  0  0  0  0  0  0
    6.3301   -2.2970    0.0000 C   0  0  0  0  0  0  0  0  0  0  0  0
    7.1962   -3.7970    0.0000 C   0  0  0  0  0  0  0  0  0  0  0  0
    7.1962   -1.7970    0.0000 C   0  0  0  0  0  0  0  0  0  0  0  0
    9.8622   -2.2762    0.0000 C   0  0  0  0  0  0  0  0  0  0  0  0
    9.8622   -3.3178    0.0000 C   0  0  0  0  0  0  0  0  0  0  0  0
    5.4641   -0.7970    0.0000 C   0  0  0  0  0  0  0  0  0  0  0  0
   13.2736    1.5232    0.0000 H   0  0  0  0  0  0  0  0  0  0  0  0
   14.2234    1.5342    0.0000 H   0  0  0  0  0  0  0  0  0  0  0  0
   14.8189    2.5936    0.0000 H   0  0  0  0  0  0  0  0  0  0  0  0
   14.3344    3.4107    0.0000 H   0  0  0  0  0  0  0  0  0  0  0  0
   12.9258    0.9737    0.0000 H   0  0  0  0  0  0  0  0  0  0  0  0
   14.6230    3.9935    0.0000 H   0  0  0  0  0  0  0  0  0  0  0  0
   10.6462    1.8774    0.0000 H   0  0  0  0  0  0  0  0  0  0  0  0
   12.0772   -0.5362    0.0000 H   0  0  0  0  0  0  0  0  0  0  0  0
   15.4717    5.5034    0.0000 H   0  0  0  0  0  0  0  0  0  0  0  0
   12.6659    5.4710    0.0000 H   0  0  0  0  0  0  0  0  0  0  0  0
   10.6837   -1.3624    0.0000 H   0  0  0  0  0  0  0  0  0  0  0  0
    3.9441   -8.3796    0.0000 H   0  0  0  0  0  0  0  0  0  0  0  0
    4.3426   -7.6894    0.0000 H   0  0  0  0  0  0  0  0  0  0  0  0
    3.2646   -5.8221    0.0000 H   0  0  0  0  0  0  0  0  0  0  0  0
    2.4675   -5.8221    0.0000 H   0  0  0  0  0  0  0  0  0  0  0  0
    4.8101   -6.8796    0.0000 H   0  0  0  0  0  0  0  0  0  0  0  0
    5.2087   -6.1894    0.0000 H   0  0  0  0  0  0  0  0  0  0  0  0
   15.4529    7.1233    0.0000 H   0  0  0  0  0  0  0  0  0  0  0  0
   12.6472    7.0909    0.0000 H   0  0  0  0  0  0  0  0  0  0  0  0
    2.4675   -8.7720    0.0000 H   0  0  0  0  0  0  0  0  0  0  0  0
    3.2646   -8.7720    0.0000 H   0  0  0  0  0  0  0  0  0  0  0  0
    1.7880   -6.2144    0.0000 H   0  0  0  0  0  0  0  0  0  0  0  0
    1.3894   -6.9047    0.0000 H   0  0  0  0  0  0  0  0  0  0  0  0
    4.3860   -4.7144    0.0000 H   0  0  0  0  0  0  0  0  0  0  0  0
    3.9875   -5.4047    0.0000 H   0  0  0  0  0  0  0  0  0  0  0  0
    5.6762   -5.3796    0.0000 H   0  0  0  0  0  0  0  0  0  0  0  0
    6.0747   -4.6894    0.0000 H   0  0  0  0  0  0  0  0  0  0  0  0
    7.1962   -4.4170    0.0000 H   0  0  0  0  0  0  0  0  0  0  0  0
    7.1962   -1.1770    0.0000 H   0  0  0  0  0  0  0  0  0  0  0  0
   10.3979   -1.9642    0.0000 H   0  0  0  0  0  0  0  0  0  0  0  0
   10.3979   -3.6299    0.0000 H   0  0  0  0  0  0  0  0  0  0  0  0
    6.0841   -0.7970    0.0000 H   0  0  0  0  0  0  0  0  0  0  0  0
    5.4641   -0.1770    0.0000 H   0  0  0  0  0  0  0  0  0  0  0  0
    4.8441   -0.7970    0.0000 H   0  0  0  0  0  0  0  0  0  0  0  0
  1 24  1  0  0  0  0
  2 34  1  0  0  0  0
  3 16  2  0  0  0  0
  4 17  2  0  0  0  0
  5 32  1  0  0  0  0
  5 33  1  0  0  0  0
  6 31  1  0  0  0  0
  6 37  1  0  0  0  0
  7 36  1  0  0  0  0
  7 39  1  0  0  0  0
  8 41  1  0  0  0  0
  8 46  1  0  0  0  0
  9 16  1  0  0  0  0
  9 18  1  0  0  0  0
  9 51  1  0  0  0  0
 10 17  1  0  0  0  0
 10 19  1  0  0  0  0
 10 52  1  0  0  0  0
 11 28  1  0  0  0  0
 11 29  1  0  0  0  0
 11 30  1  0  0  0  0
 12 40  2  0  0  0  0
 12 45  1  0  0  0  0
 13 14  1  0  0  0  0
 13 15  1  0  0  0  0
 13 16  1  0  0  0  0
 13 17  1  0  0  0  0
 14 15  1  0  0  0  0
 14 47  1  0  0  0  0
 14 48  1  0  0  0  0
 15 49  1  0  0  0  0
 15 50  1  0  0  0  0
 18 20  2  0  0  0  0
 18 21  1  0  0  0  0
 19 22  2  0  0  0  0
 19 23  1  0  0  0  0
 20 24  1  0  0  0  0
 20 53  1  0  0  0  0
 21 25  2  0  0  0  0
 21 54  1  0  0  0  0
 22 26  1  0  0  0  0
 22 55  1  0  0  0  0
 23 27  2  0  0  0  0
 23 56  1  0  0  0  0
 24 31  2  0  0  0  0
 25 31  1  0  0  0  0
 25 57  1  0  0  0  0
 26 34  2  0  0  0  0
 26 64  1  0  0  0  0
 27 34  1  0  0  0  0
 27 65  1  0  0  0  0
 28 32  1  0  0  0  0
 28 58  1  0  0  0  0
 28 59  1  0  0  0  0
 29 33  1  0  0  0  0
 29 60  1  0  0  0  0
 29 61  1  0  0  0  0
 30 35  1  0  0  0  0
 30 62  1  0  0  0  0
 30 63  1  0  0  0  0
 32 66  1  0  0  0  0
 32 67  1  0  0  0  0
 33 68  1  0  0  0  0
 33 69  1  0  0  0  0
 35 36  1  0  0  0  0
 35 70  1  0  0  0  0
 35 71  1  0  0  0  0
 36 72  1  0  0  0  0
 36 73  1  0  0  0  0
 37 38  2  0  0  0  0
 37 44  1  0  0  0  0
 38 40  1  0  0  0  0
 38 43  1  0  0  0  0
 39 41  1  0  0  0  0
 39 42  2  0  0  0  0
 40 42  1  0  0  0  0
 41 43  2  0  0  0  0
 42 74  1  0  0  0  0
 43 75  1  0  0  0  0
 44 45  2  0  0  0  0
 44 76  1  0  0  0  0
 45 77  1  0  0  0  0
 46 78  1  0  0  0  0
 46 79  1  0  0  0  0
 46 80  1  0  0  0  0
M  END
> <PUBCHEM_COMPOUND_CID>
42642645

> <PUBCHEM_COMPOUND_CANONICALIZED>
1

> <PUBCHEM_CACTVS_COMPLEXITY>
1010

> <PUBCHEM_CACTVS_HBOND_ACCEPTOR>
10

> <PUBCHEM_CACTVS_HBOND_DONOR>
2

> <PUBCHEM_CACTVS_ROTATABLE_BOND>
12

> <PUBCHEM_CACTVS_SUBSKEYS>
AAADcfB/uYAAAAAAAAAAAAAAGAAAAAAAAAA8eMECAAAAAACx9AAAHwAQAAAADgzhng4+xvPIFACoAzV3VACCiCAxIiAI2CE+7JgPJvrM8ZuHOCrm1Bna6Afw8L8OIEABAgACQABAgAIEAASAAAAAAAAAAA==

> <PUBCHEM_IUPAC_OPENEYE_NAME>
N1'-[3-fluoro-4-[[6-methoxy-7-(3-morpholinopropoxy)-4-quinolyl]oxy]phenyl]-N1-(4-fluorophenyl)cyclopropane-1,1-dicarboxamide

> <PUBCHEM_IUPAC_CAS_NAME>
N1'-[3-fluoro-4-[[6-methoxy-7-[3-(4-morpholinyl)propoxy]-4-quinolinyl]oxy]phenyl]-N1-(4-fluorophenyl)cyclopropane-1,1-dicarboxamide

> <PUBCHEM_IUPAC_NAME_MARKUP>
1-<I>N</I>&apos;-[3-fluoro-4-[6-methoxy-7-(3-morpholin-4-ylpropoxy)quinolin-4-yl]oxyphenyl]-1-<I>N</I>-(4-fluorophenyl)cyclopropane-1,1-dicarboxamide

> <PUBCHEM_IUPAC_NAME>
1-N'-[3-fluoro-4-[6-methoxy-7-(3-morpholin-4-ylpropoxy)quinolin-4-yl]oxyphenyl]-1-N-(4-fluorophenyl)cyclopropane-1,1-dicarboxamide

> <PUBCHEM_IUPAC_SYSTEMATIC_NAME>
N1'-[3-fluoranyl-4-[6-methoxy-7-(3-morpholin-4-ylpropoxy)quinolin-4-yl]oxy-phenyl]-N1-(4-fluorophenyl)cyclopropane-1,1-dicarboxamide

> <PUBCHEM_IUPAC_TRADITIONAL_NAME>
N'-[3-fluoro-4-[[6-methoxy-7-(3-morpholinopropoxy)-4-quinolyl]oxy]phenyl]-N-(4-fluorophenyl)cyclopropane-1,1-dicarboxamide

> <PUBCHEM_IUPAC_INCHI>
InChI=1S/C34H34F2N4O6/c1-43-30-20-25-27(21-31(30)45-16-2-13-40-14-17-44-18-15-40)37-12-9-28(25)46-29-8-7-24(19-26(29)36)39-33(42)34(10-11-34)32(41)38-23-5-3-22(35)4-6-23/h3-9,12,19-21H,2,10-11,13-18H2,1H3,(H,38,41)(H,39,42)

> <PUBCHEM_IUPAC_INCHIKEY>
CXQHYVUVSFXTMY-UHFFFAOYSA-N

> <PUBCHEM_XLOGP3_AA>
5.5

> <PUBCHEM_EXACT_MASS>
632.24464114

> <PUBCHEM_MOLECULAR_FORMULA>
C34H34F2N4O6

> <PUBCHEM_MOLECULAR_WEIGHT>
632.7

> <PUBCHEM_OPENEYE_CAN_SMILES>
COC1=CC2=C(C=CN=C2C=C1OCCCN3CCOCC3)OC4=C(C=C(C=C4)NC(=O)C5(CC5)C(=O)NC6=CC=C(C=C6)F)F

> <PUBCHEM_OPENEYE_ISO_SMILES>
COC1=CC2=C(C=CN=C2C=C1OCCCN3CCOCC3)OC4=C(C=C(C=C4)NC(=O)C5(CC5)C(=O)NC6=CC=C(C=C6)F)F

> <PUBCHEM_CACTVS_TPSA>
111

> <PUBCHEM_MONOISOTOPIC_WEIGHT>
632.24464114

> <PUBCHEM_TOTAL_CHARGE>
0

> <PUBCHEM_HEAVY_ATOM_COUNT>
46

> <PUBCHEM_ATOM_DEF_STEREO_COUNT>
0

> <PUBCHEM_ATOM_UDEF_STEREO_COUNT>
0

> <PUBCHEM_BOND_DEF_STEREO_COUNT>
0

> <PUBCHEM_BOND_UDEF_STEREO_COUNT>
0

> <PUBCHEM_ISOTOPIC_ATOM_COUNT>
0

> <PUBCHEM_COMPONENT_COUNT>
1

> <PUBCHEM_CACTVS_TAUTO_COUNT>
-1

> <PUBCHEM_COORDINATE_TYPE>
1
5
255

> <PUBCHEM_BONDANNOTATIONS>
12  40  8
12  45  8
18  20  8
18  21  8
19  22  8
19  23  8
20  24  8
21  25  8
22  26  8
23  27  8
24  31  8
25  31  8
26  34  8
27  34  8
37  38  8
37  44  8
38  40  8
38  43  8
39  41  8
39  42  8
40  42  8
41  43  8
44  45  8

$$$$
46911863
  -OEChem-11282412102D

 41 45  0     0  0  0  0  0  0999 V2000
    5.8270    0.5760    0.0000 F   0  0  0  0  0  0  0  0  0  0  0  0
    6.8270    2.3081    0.0000 F   0  0  0  0  0  0  0  0  0  0  0  0
    4.5531    1.5369    0.0000 N   0  0  0  0  0  0  0  0  0  0  0  0
    4.2425    0.5864    0.0000 N   0  0  0  0  0  0  0  0  0  0  0  0
    5.3579    2.9308    0.0000 N   0  0  0  0  0  0  0  0  0  0  0  0
    4.3861    3.1400    0.0000 N   0  0  0  0  0  0  0  0  0  0  0  0
    2.9505   -2.1884    0.0000 N   0  0  0  0  0  0  0  0  0  0  0  0
    9.8190   -0.5926    0.0000 N   0  0  0  0  0  0  0  0  0  0  0  0
    2.0000   -1.8777    0.0000 N   0  0  0  0  0  0  0  0  0  0  0  0
    6.3270    1.4420    0.0000 C   0  0  0  0  0  0  0  0  0  0  0  0
    5.4609    1.9420    0.0000 C   0  0  0  0  0  0  0  0  0  0  0  0
    7.1930    0.9420    0.0000 C   0  0  0  0  0  0  0  0  0  0  0  0
    3.8853    2.2812    0.0000 C   0  0  0  0  0  0  0  0  0  0  0  0
    8.0590    1.4420    0.0000 C   0  0  0  0  0  0  0  0  0  0  0  0
    3.2640    0.3802    0.0000 C   0  0  0  0  0  0  0  0  0  0  0  0
    8.9250    0.9420    0.0000 C   0  0  0  0  0  0  0  0  0  0  0  0
    7.1930   -0.0580    0.0000 C   0  0  0  0  0  0  0  0  0  0  0  0
    8.9250   -0.0580    0.0000 C   0  0  0  0  0  0  0  0  0  0  0  0
    2.9533   -0.5703    0.0000 C   0  0  0  0  0  0  0  0  0  0  0  0
    2.9068    2.0750    0.0000 C   0  0  0  0  0  0  0  0  0  0  0  0
    2.5961    1.1245    0.0000 C   0  0  0  0  0  0  0  0  0  0  0  0
    8.0590   -0.5580    0.0000 C   0  0  0  0  0  0  0  0  0  0  0  0
    3.5397   -1.3804    0.0000 C   0  0  0  0  0  0  0  0  0  0  0  0
    9.8190    1.4767    0.0000 C   0  0  0  0  0  0  0  0  0  0  0  0
    2.0017   -0.8777    0.0000 C   0  0  0  0  0  0  0  0  0  0  0  0
   10.7250    0.9628    0.0000 C   0  0  0  0  0  0  0  0  0  0  0  0
   10.7250   -0.0788    0.0000 C   0  0  0  0  0  0  0  0  0  0  0  0
    3.2579   -3.1400    0.0000 C   0  0  0  0  0  0  0  0  0  0  0  0
    8.0590    2.0620    0.0000 H   0  0  0  0  0  0  0  0  0  0  0  0
    6.6560   -0.3680    0.0000 H   0  0  0  0  0  0  0  0  0  0  0  0
    2.4927    2.5365    0.0000 H   0  0  0  0  0  0  0  0  0  0  0  0
    1.9895    0.9966    0.0000 H   0  0  0  0  0  0  0  0  0  0  0  0
    8.0590   -1.1780    0.0000 H   0  0  0  0  0  0  0  0  0  0  0  0
    4.1597   -1.3814    0.0000 H   0  0  0  0  0  0  0  0  0  0  0  0
    9.8118    2.0966    0.0000 H   0  0  0  0  0  0  0  0  0  0  0  0
    1.5008   -0.5124    0.0000 H   0  0  0  0  0  0  0  0  0  0  0  0
   11.2608    1.2749    0.0000 H   0  0  0  0  0  0  0  0  0  0  0  0
   11.2608   -0.3908    0.0000 H   0  0  0  0  0  0  0  0  0  0  0  0
    2.6679   -3.3305    0.0000 H   0  0  0  0  0  0  0  0  0  0  0  0
    3.4485   -3.7300    0.0000 H   0  0  0  0  0  0  0  0  0  0  0  0
    3.8479   -2.9494    0.0000 H   0  0  0  0  0  0  0  0  0  0  0  0
  1 10  1  0  0  0  0
  2 10  1  0  0  0  0
  3  4  1  0  0  0  0
  3 11  1  0  0  0  0
  3 13  1  0  0  0  0
  4 15  2  0  0  0  0
  5  6  1  0  0  0  0
  5 11  2  0  0  0  0
  6 13  2  0  0  0  0
  7  9  1  0  0  0  0
  7 23  1  0  0  0  0
  7 28  1  0  0  0  0
  8 18  1  0  0  0  0
  8 27  2  0  0  0  0
  9 25  2  0  0  0  0
 10 11  1  0  0  0  0
 10 12  1  0  0  0  0
 12 14  2  0  0  0  0
 12 17  1  0  0  0  0
 13 20  1  0  0  0  0
 14 16  1  0  0  0  0
 14 29  1  0  0  0  0
 15 19  1  0  0  0  0
 15 21  1  0  0  0  0
 16 18  2  0  0  0  0
 16 24  1  0  0  0  0
 17 22  2  0  0  0  0
 17 30  1  0  0  0  0
 18 22  1  0  0  0  0
 19 23  2  0  0  0  0
 19 25  1  0  0  0  0
 20 21  2  0  0  0  0
 20 31  1  0  0  0  0
 21 32  1  0  0  0  0
 22 33  1  0  0  0  0
 23 34  1  0  0  0  0
 24 26  2  0  0  0  0
 24 35  1  0  0  0  0
 25 36  1  0  0  0  0
 26 27  1  0  0  0  0
 26 37  1  0  0  0  0
 27 38  1  0  0  0  0
 28 39  1  0  0  0  0
 28 40  1  0  0  0  0
 28 41  1  0  0  0  0
M  END
> <PUBCHEM_COMPOUND_CID>
46911863

> <PUBCHEM_COMPOUND_CANONICALIZED>
1

> <PUBCHEM_CACTVS_COMPLEXITY>
564

> <PUBCHEM_CACTVS_HBOND_ACCEPTOR>
7

> <PUBCHEM_CACTVS_HBOND_DONOR>
0

> <PUBCHEM_CACTVS_ROTATABLE_BOND>
3

> <PUBCHEM_CACTVS_SUBSKEYS>
AAADccB7gYAAAAAAAAAAAAAAAAAAAWLAAAA8WIAAAAAAAFix/gAAHQAIAAAADAjBHxQ/8P4IEACiAzZnZACShCsxgqAd2CA4ZJiIKOLA2dGEpAhgiALIyCcQgMAOCAACAAACAAAQAAQAAAQAAAAAAAAAAA==

> <PUBCHEM_IUPAC_OPENEYE_NAME>
6-[difluoro-[6-(1-methylpyrazol-4-yl)-[1,2,4]triazolo[4,3-b]pyridazin-3-yl]methyl]quinoline

> <PUBCHEM_IUPAC_CAS_NAME>
6-[difluoro-[6-(1-methyl-4-pyrazolyl)-[1,2,4]triazolo[4,3-b]pyridazin-3-yl]methyl]quinoline

> <PUBCHEM_IUPAC_NAME_MARKUP>
6-[difluoro-[6-(1-methylpyrazol-4-yl)-[1,2,4]triazolo[4,3-b]pyridazin-3-yl]methyl]quinoline

> <PUBCHEM_IUPAC_NAME>
6-[difluoro-[6-(1-methylpyrazol-4-yl)-[1,2,4]triazolo[4,3-b]pyridazin-3-yl]methyl]quinoline

> <PUBCHEM_IUPAC_SYSTEMATIC_NAME>
6-[bis(fluoranyl)-[6-(1-methylpyrazol-4-yl)-[1,2,4]triazolo[4,3-b]pyridazin-3-yl]methyl]quinoline

> <PUBCHEM_IUPAC_TRADITIONAL_NAME>
6-[difluoro-[6-(1-methylpyrazol-4-yl)-[1,2,4]triazolo[4,3-b]pyridazin-3-yl]methyl]quinoline

> <PUBCHEM_IUPAC_INCHI>
InChI=1S/C19H13F2N7/c1-27-11-13(10-23-27)16-6-7-17-24-25-18(28(17)26-16)19(20,21)14-4-5-15-12(9-14)3-2-8-22-15/h2-11H,1H3

> <PUBCHEM_IUPAC_INCHIKEY>
JRWCBEOAFGHNNU-UHFFFAOYSA-N

> <PUBCHEM_XLOGP3_AA>
2.1

> <PUBCHEM_EXACT_MASS>
377.12004977

> <PUBCHEM_MOLECULAR_FORMULA>
C19H13F2N7

> <PUBCHEM_MOLECULAR_WEIGHT>
377.3

> <PUBCHEM_OPENEYE_CAN_SMILES>
CN1C=C(C=N1)C2=NN3C(=NN=C3C(C4=CC5=C(C=C4)N=CC=C5)(F)F)C=C2

> <PUBCHEM_OPENEYE_ISO_SMILES>
CN1C=C(C=N1)C2=NN3C(=NN=C3C(C4=CC5=C(C=C4)N=CC=C5)(F)F)C=C2

> <PUBCHEM_CACTVS_TPSA>
73.8

> <PUBCHEM_MONOISOTOPIC_WEIGHT>
377.12004977

> <PUBCHEM_TOTAL_CHARGE>
0

> <PUBCHEM_HEAVY_ATOM_COUNT>
28

> <PUBCHEM_ATOM_DEF_STEREO_COUNT>
0

> <PUBCHEM_ATOM_UDEF_STEREO_COUNT>
0

> <PUBCHEM_BOND_DEF_STEREO_COUNT>
0

> <PUBCHEM_BOND_UDEF_STEREO_COUNT>
0

> <PUBCHEM_ISOTOPIC_ATOM_COUNT>
0

> <PUBCHEM_COMPONENT_COUNT>
1

> <PUBCHEM_CACTVS_TAUTO_COUNT>
-1

> <PUBCHEM_COORDINATE_TYPE>
1
5
255

> <PUBCHEM_BONDANNOTATIONS>
12  14  8
12  17  8
13  20  8
14  16  8
15  21  8
16  18  8
16  24  8
17  22  8
18  22  8
19  23  8
19  25  8
20  21  8
24  26  8
26  27  8
3  11  8
3  13  8
3  4  8
4  15  8
5  11  8
5  6  8
6  13  8
7  23  8
7  9  8
8  18  8
8  27  8
9  25  8

$$$$
50922691
  -OEChem-11282412102D

 60 65  0     0  0  0  0  0  0999 V2000
    7.0938   -2.4124    0.0000 O   0  0  0  0  0  0  0  0  0  0  0  0
    5.5938   -3.2784    0.0000 N   0  0  0  0  0  0  0  0  0  0  0  0
    5.9989   -0.6386    0.0000 N   0  0  0  0  0  0  0  0  0  0  0  0
    5.2619    1.0285    0.0000 N   0  0  0  0  0  0  0  0  0  0  0  0
    2.5836   -0.2762    0.0000 N   0  0  0  0  0  0  0  0  0  0  0  0
    2.5836    1.3332    0.0000 N   0  0  0  0  0  0  0  0  0  0  0  0
    4.3958    2.5285    0.0000 N   0  0  0  0  0  0  0  0  0  0  0  0
    6.1754    2.6218    0.0000 N   0  0  0  0  0  0  0  0  0  0  0  0
    6.8446    3.3649    0.0000 N   0  0  0  0  0  0  0  0  0  0  0  0
    6.0938   -4.1445    0.0000 C   0  0  0  0  0  0  0  0  0  0  0  0
    4.5938   -3.2784    0.0000 C   0  0  0  0  0  0  0  0  0  0  0  0
    6.0938   -5.1445    0.0000 C   0  0  0  0  0  0  0  0  0  0  0  0
    6.9598   -4.6445    0.0000 C   0  0  0  0  0  0  0  0  0  0  0  0
    3.7278   -2.7784    0.0000 C   0  0  0  0  0  0  0  0  0  0  0  0
    3.7278   -3.7784    0.0000 C   0  0  0  0  0  0  0  0  0  0  0  0
    6.0938   -2.4124    0.0000 C   0  0  0  0  0  0  0  0  0  0  0  0
    5.5938   -1.5464    0.0000 C   0  0  0  0  0  0  0  0  0  0  0  0
    4.6051   -1.4433    0.0000 C   0  0  0  0  0  0  0  0  0  0  0  0
    4.3958   -0.4715    0.0000 C   0  0  0  0  0  0  0  0  0  0  0  0
    5.2619    0.0285    0.0000 C   0  0  0  0  0  0  0  0  0  0  0  0
    6.9774   -0.4324    0.0000 C   0  0  0  0  0  0  0  0  0  0  0  0
    3.5298    0.0285    0.0000 C   0  0  0  0  0  0  0  0  0  0  0  0
    3.5298    1.0285    0.0000 C   0  0  0  0  0  0  0  0  0  0  0  0
    7.6452   -1.1767    0.0000 C   0  0  0  0  0  0  0  0  0  0  0  0
    4.3958    1.5285    0.0000 C   0  0  0  0  0  0  0  0  0  0  0  0
    2.0000    0.5285    0.0000 C   0  0  0  0  0  0  0  0  0  0  0  0
    2.2729   -1.2268    0.0000 C   0  0  0  0  0  0  0  0  0  0  0  0
    5.2619    3.0285    0.0000 C   0  0  0  0  0  0  0  0  0  0  0  0
    5.3664    4.0230    0.0000 C   0  0  0  0  0  0  0  0  0  0  0  0
    6.3446    4.2309    0.0000 C   0  0  0  0  0  0  0  0  0  0  0  0
    6.7513    5.1445    0.0000 C   0  0  0  0  0  0  0  0  0  0  0  0
    7.8391    3.2604    0.0000 C   0  0  0  0  0  0  0  0  0  0  0  0
    5.4949   -4.3049    0.0000 H   0  0  0  0  0  0  0  0  0  0  0  0
    4.7542   -3.8773    0.0000 H   0  0  0  0  0  0  0  0  0  0  0  0
    5.4832   -5.2521    0.0000 H   0  0  0  0  0  0  0  0  0  0  0  0
    6.3058   -5.7271    0.0000 H   0  0  0  0  0  0  0  0  0  0  0  0
    7.3583   -5.1194    0.0000 H   0  0  0  0  0  0  0  0  0  0  0  0
    7.3583   -4.1695    0.0000 H   0  0  0  0  0  0  0  0  0  0  0  0
    3.9398   -2.1958    0.0000 H   0  0  0  0  0  0  0  0  0  0  0  0
    3.1172   -2.6708    0.0000 H   0  0  0  0  0  0  0  0  0  0  0  0
    3.1172   -3.8861    0.0000 H   0  0  0  0  0  0  0  0  0  0  0  0
    3.9398   -4.3610    0.0000 H   0  0  0  0  0  0  0  0  0  0  0  0
    4.1910   -1.9048    0.0000 H   0  0  0  0  0  0  0  0  0  0  0  0
    7.5038   -0.1047    0.0000 H   0  0  0  0  0  0  0  0  0  0  0  0
    6.7461    0.1429    0.0000 H   0  0  0  0  0  0  0  0  0  0  0  0
    7.1838   -1.5908    0.0000 H   0  0  0  0  0  0  0  0  0  0  0  0
    8.0593   -1.6382    0.0000 H   0  0  0  0  0  0  0  0  0  0  0  0
    8.1067   -0.7626    0.0000 H   0  0  0  0  0  0  0  0  0  0  0  0
    1.3800    0.5285    0.0000 H   0  0  0  0  0  0  0  0  0  0  0  0
    1.6836   -1.0342    0.0000 H   0  0  0  0  0  0  0  0  0  0  0  0
    2.0803   -1.8161    0.0000 H   0  0  0  0  0  0  0  0  0  0  0  0
    2.8623   -1.4194    0.0000 H   0  0  0  0  0  0  0  0  0  0  0  0
    3.8589    2.8385    0.0000 H   0  0  0  0  0  0  0  0  0  0  0  0
    4.9057    4.4379    0.0000 H   0  0  0  0  0  0  0  0  0  0  0  0
    7.3177    4.8923    0.0000 H   0  0  0  0  0  0  0  0  0  0  0  0
    7.0035    5.7109    0.0000 H   0  0  0  0  0  0  0  0  0  0  0  0
    6.1849    5.3966    0.0000 H   0  0  0  0  0  0  0  0  0  0  0  0
    7.7743    2.6438    0.0000 H   0  0  0  0  0  0  0  0  0  0  0  0
    8.4557    3.1956    0.0000 H   0  0  0  0  0  0  0  0  0  0  0  0
    7.9039    3.8770    0.0000 H   0  0  0  0  0  0  0  0  0  0  0  0
  1 16  2  0  0  0  0
  2 10  1  0  0  0  0
  2 11  1  0  0  0  0
  2 16  1  0  0  0  0
  3 17  1  0  0  0  0
  3 20  1  0  0  0  0
  3 21  1  0  0  0  0
  4 20  2  0  0  0  0
  4 25  1  0  0  0  0
  5 22  1  0  0  0  0
  5 26  1  0  0  0  0
  5 27  1  0  0  0  0
  6 23  1  0  0  0  0
  6 26  2  0  0  0  0
  7 25  1  0  0  0  0
  7 28  1  0  0  0  0
  7 53  1  0  0  0  0
  8  9  1  0  0  0  0
  8 28  2  0  0  0  0
  9 30  1  0  0  0  0
  9 32  1  0  0  0  0
 10 12  1  0  0  0  0
 10 13  1  0  0  0  0
 10 33  1  0  0  0  0
 11 14  1  0  0  0  0
 11 15  1  0  0  0  0
 11 34  1  0  0  0  0
 12 13  1  0  0  0  0
 12 35  1  0  0  0  0
 12 36  1  0  0  0  0
 13 37  1  0  0  0  0
 13 38  1  0  0  0  0
 14 15  1  0  0  0  0
 14 39  1  0  0  0  0
 14 40  1  0  0  0  0
 15 41  1  0  0  0  0
 15 42  1  0  0  0  0
 16 17  1  0  0  0  0
 17 18  2  0  0  0  0
 18 19  1  0  0  0  0
 18 43  1  0  0  0  0
 19 20  1  0  0  0  0
 19 22  2  0  0  0  0
 21 24  1  0  0  0  0
 21 44  1  0  0  0  0
 21 45  1  0  0  0  0
 22 23  1  0  0  0  0
 23 25  2  0  0  0  0
 24 46  1  0  0  0  0
 24 47  1  0  0  0  0
 24 48  1  0  0  0  0
 26 49  1  0  0  0  0
 27 50  1  0  0  0  0
 27 51  1  0  0  0  0
 27 52  1  0  0  0  0
 28 29  1  0  0  0  0
 29 30  2  0  0  0  0
 29 54  1  0  0  0  0
 30 31  1  0  0  0  0
 31 55  1  0  0  0  0
 31 56  1  0  0  0  0
 31 57  1  0  0  0  0
 32 58  1  0  0  0  0
 32 59  1  0  0  0  0
 32 60  1  0  0  0  0
M  END
> <PUBCHEM_COMPOUND_CID>
50922691

> <PUBCHEM_COMPOUND_CANONICALIZED>
1

> <PUBCHEM_CACTVS_COMPLEXITY>
717

> <PUBCHEM_CACTVS_HBOND_ACCEPTOR>
5

> <PUBCHEM_CACTVS_HBOND_DONOR>
1

> <PUBCHEM_CACTVS_ROTATABLE_BOND>
6

> <PUBCHEM_CACTVS_SUBSKEYS>
AAADceB74AAAAAAAAAAAAAAAGDAAAWLFgAAsAAAAAAAAAFgB/gAAHgAYAAAADCjBnwQ38P/MEACqAydzdACShC83kqAV2CG4dNiIaPLA3fGUpQh4ngLIyacYiQCeAAAAAAAAAAAAAAAAAAAAAAAAAAAAAA==

> <PUBCHEM_IUPAC_OPENEYE_NAME>
N,N-dicyclopropyl-7-[(1,5-dimethylpyrazol-3-yl)amino]-10-ethyl-3-methyl-3,5,8,10-tetrazatricyclo[7.3.0.02,6]dodeca-1,4,6,8,11-pentaene-11-carboxamide

> <PUBCHEM_IUPAC_CAS_NAME>
N,N-dicyclopropyl-7-[(1,5-dimethyl-3-pyrazolyl)amino]-10-ethyl-3-methyl-3,5,8,10-tetrazatricyclo[7.3.0.02,6]dodeca-1,4,6,8,11-pentaene-11-carboxamide

> <PUBCHEM_IUPAC_NAME_MARKUP>
<I>N</I>,<I>N</I>-dicyclopropyl-7-[(1,5-dimethylpyrazol-3-yl)amino]-10-ethyl-3-methyl-3,5,8,10-tetrazatricyclo[7.3.0.0<SUP>2,6</SUP>]dodeca-1,4,6,8,11-pentaene-11-carboxamide

> <PUBCHEM_IUPAC_NAME>
N,N-dicyclopropyl-7-[(1,5-dimethylpyrazol-3-yl)amino]-10-ethyl-3-methyl-3,5,8,10-tetrazatricyclo[7.3.0.02,6]dodeca-1,4,6,8,11-pentaene-11-carboxamide

> <PUBCHEM_IUPAC_SYSTEMATIC_NAME>
N,N-dicyclopropyl-7-[(1,5-dimethylpyrazol-3-yl)amino]-10-ethyl-3-methyl-3,5,8,10-tetrazatricyclo[7.3.0.02,6]dodeca-1,4,6,8,11-pentaene-11-carboxamide

> <PUBCHEM_IUPAC_TRADITIONAL_NAME>
N,N-dicyclopropyl-7-[(1,5-dimethylpyrazol-3-yl)amino]-10-ethyl-3-methyl-3,5,8,10-tetrazatricyclo[7.3.0.02,6]dodeca-1,4,6,8,11-pentaene-11-carboxamide

> <PUBCHEM_IUPAC_INCHI>
InChI=1S/C23H28N8O/c1-5-30-17(23(32)31(14-6-7-14)15-8-9-15)11-16-20-19(24-12-28(20)3)21(26-22(16)30)25-18-10-13(2)29(4)27-18/h10-12,14-15H,5-9H2,1-4H3,(H,25,26,27)

> <PUBCHEM_IUPAC_INCHIKEY>
JCINBYQJBYJGDM-UHFFFAOYSA-N

> <PUBCHEM_XLOGP3_AA>
2.9

> <PUBCHEM_EXACT_MASS>
432.23860755

> <PUBCHEM_MOLECULAR_FORMULA>
C23H28N8O

> <PUBCHEM_MOLECULAR_WEIGHT>
432.5

> <PUBCHEM_OPENEYE_CAN_SMILES>
CCN1C(=CC2=C3C(=C(N=C21)NC4=NN(C(=C4)C)C)N=CN3C)C(=O)N(C5CC5)C6CC6

> <PUBCHEM_OPENEYE_ISO_SMILES>
CCN1C(=CC2=C3C(=C(N=C21)NC4=NN(C(=C4)C)C)N=CN3C)C(=O)N(C5CC5)C6CC6

> <PUBCHEM_CACTVS_TPSA>
85.8

> <PUBCHEM_MONOISOTOPIC_WEIGHT>
432.23860755

> <PUBCHEM_TOTAL_CHARGE>
0

> <PUBCHEM_HEAVY_ATOM_COUNT>
32

> <PUBCHEM_ATOM_DEF_STEREO_COUNT>
0

> <PUBCHEM_ATOM_UDEF_STEREO_COUNT>
0

> <PUBCHEM_BOND_DEF_STEREO_COUNT>
0

> <PUBCHEM_BOND_UDEF_STEREO_COUNT>
0

> <PUBCHEM_ISOTOPIC_ATOM_COUNT>
0

> <PUBCHEM_COMPONENT_COUNT>
1

> <PUBCHEM_CACTVS_TAUTO_COUNT>
-1

> <PUBCHEM_COORDINATE_TYPE>
1
5
255

> <PUBCHEM_BONDANNOTATIONS>
17  18  8
18  19  8
19  20  8
19  22  8
22  23  8
23  25  8
28  29  8
29  30  8
3  17  8
3  20  8
4  20  8
4  25  8
5  22  8
5  26  8
6  23  8
6  26  8
8  28  8
8  9  8
9  30  8

$$$$
91668194
  -OEChem-11282412102D

 52 55  0     1  0  0  0  0  0999 V2000
    5.2579   -4.1289    0.0000 F   0  0  0  0  0  0  0  0  0  0  0  0
    3.9890   -3.9674    0.0000 O   0  0  0  0  0  0  0  0  0  0  0  0
    8.2519    3.1507    0.0000 O   0  0  0  0  0  0  0  0  0  0  0  0
    6.7473   -2.0129    0.0000 N   0  0  3  0  0  0  0  0  0  0  0  0
    4.1701   -2.2448    0.0000 N   0  0  0  0  0  0  0  0  0  0  0  0
    8.4793   -2.0129    0.0000 N   0  0  0  0  0  0  0  0  0  0  0  0
    7.6133   -0.5129    0.0000 N   0  0  0  0  0  0  0  0  0  0  0  0
   10.2916   -1.8176    0.0000 N   0  0  0  0  0  0  0  0  0  0  0  0
    8.4793    0.9871    0.0000 N   0  0  0  0  0  0  0  0  0  0  0  0
   10.2916   -0.2082    0.0000 N   0  0  0  0  0  0  0  0  0  0  0  0
    6.0306    1.8235    0.0000 N   0  0  0  0  0  0  0  0  0  0  0  0
    6.5306    2.6895    0.0000 N   0  0  0  0  0  0  0  0  0  0  0  0
    5.1646   -2.3493    0.0000 C   0  0  1  0  0  0  0  0  0  0  0  0
    5.6646   -3.2153    0.0000 C   0  0  1  0  0  0  0  0  0  0  0  0
    5.8338   -1.6062    0.0000 C   0  0  0  0  0  0  0  0  0  0  0  0
    6.6428   -3.0074    0.0000 C   0  0  0  0  0  0  0  0  0  0  0  0
    7.6133   -1.5129    0.0000 C   0  0  0  0  0  0  0  0  0  0  0  0
    3.5823   -3.0538    0.0000 C   0  0  0  0  0  0  0  0  0  0  0  0
    9.3454   -1.5129    0.0000 C   0  0  0  0  0  0  0  0  0  0  0  0
    8.4793   -0.0129    0.0000 C   0  0  0  0  0  0  0  0  0  0  0  0
    9.3454   -0.5129    0.0000 C   0  0  0  0  0  0  0  0  0  0  0  0
    2.5878   -2.9493    0.0000 C   0  0  0  0  0  0  0  0  0  0  0  0
   10.8752   -1.0129    0.0000 C   0  0  0  0  0  0  0  0  0  0  0  0
    7.6133    1.4871    0.0000 C   0  0  0  0  0  0  0  0  0  0  0  0
   10.6022   -2.7682    0.0000 C   0  0  0  0  0  0  0  0  0  0  0  0
    6.6998    1.0804    0.0000 C   0  0  0  0  0  0  0  0  0  0  0  0
    7.5088    2.4816    0.0000 C   0  0  0  0  0  0  0  0  0  0  0  0
    2.0000   -3.7583    0.0000 C   0  0  0  0  0  0  0  0  0  0  0  0
    5.0361    1.7190    0.0000 C   0  0  0  0  0  0  0  0  0  0  0  0
    8.0440    4.1289    0.0000 C   0  0  0  0  0  0  0  0  0  0  0  0
    4.9424   -1.7705    0.0000 H   0  0  0  0  0  0  0  0  0  0  0  0
    5.0455   -3.2478    0.0000 H   0  0  0  0  0  0  0  0  0  0  0  0
    6.1437   -1.0692    0.0000 H   0  0  0  0  0  0  0  0  0  0  0  0
    5.3322   -1.2418    0.0000 H   0  0  0  0  0  0  0  0  0  0  0  0
    6.7076   -3.6240    0.0000 H   0  0  0  0  0  0  0  0  0  0  0  0
    7.2628   -3.0074    0.0000 H   0  0  0  0  0  0  0  0  0  0  0  0
    3.9179   -1.6784    0.0000 H   0  0  0  0  0  0  0  0  0  0  0  0
    9.0163    1.2971    0.0000 H   0  0  0  0  0  0  0  0  0  0  0  0
    2.3356   -2.3829    0.0000 H   0  0  0  0  0  0  0  0  0  0  0  0
   11.4952   -1.0129    0.0000 H   0  0  0  0  0  0  0  0  0  0  0  0
   10.0129   -2.9608    0.0000 H   0  0  0  0  0  0  0  0  0  0  0  0
   10.7949   -3.3575    0.0000 H   0  0  0  0  0  0  0  0  0  0  0  0
   11.1916   -2.5755    0.0000 H   0  0  0  0  0  0  0  0  0  0  0  0
    6.5709    0.4739    0.0000 H   0  0  0  0  0  0  0  0  0  0  0  0
    1.3834   -3.6935    0.0000 H   0  0  0  0  0  0  0  0  0  0  0  0
    2.2522   -4.3247    0.0000 H   0  0  0  0  0  0  0  0  0  0  0  0
    4.9713    2.3356    0.0000 H   0  0  0  0  0  0  0  0  0  0  0  0
    4.4195    1.6542    0.0000 H   0  0  0  0  0  0  0  0  0  0  0  0
    5.1009    1.1024    0.0000 H   0  0  0  0  0  0  0  0  0  0  0  0
    8.6505    4.2578    0.0000 H   0  0  0  0  0  0  0  0  0  0  0  0
    7.9151    4.7353    0.0000 H   0  0  0  0  0  0  0  0  0  0  0  0
    7.4376    4.0000    0.0000 H   0  0  0  0  0  0  0  0  0  0  0  0
 14  1  1  1  0  0  0
  2 18  2  0  0  0  0
  3 27  1  0  0  0  0
  3 30  1  0  0  0  0
  4 15  1  0  0  0  0
  4 16  1  0  0  0  0
  4 17  1  0  0  0  0
 13  5  1  6  0  0  0
  5 18  1  0  0  0  0
  5 37  1  0  0  0  0
  6 17  1  0  0  0  0
  6 19  2  0  0  0  0
  7 17  2  0  0  0  0
  7 20  1  0  0  0  0
  8 19  1  0  0  0  0
  8 23  1  0  0  0  0
  8 25  1  0  0  0  0
  9 20  1  0  0  0  0
  9 24  1  0  0  0  0
  9 38  1  0  0  0  0
 10 21  1  0  0  0  0
 10 23  2  0  0  0  0
 11 12  1  0  0  0  0
 11 26  1  0  0  0  0
 11 29  1  0  0  0  0
 12 27  2  0  0  0  0
 13 14  1  0  0  0  0
 13 15  1  0  0  0  0
 13 31  1  0  0  0  0
 14 16  1  0  0  0  0
 14 32  1  0  0  0  0
 15 33  1  0  0  0  0
 15 34  1  0  0  0  0
 16 35  1  0  0  0  0
 16 36  1  0  0  0  0
 18 22  1  0  0  0  0
 19 21  1  0  0  0  0
 20 21  2  0  0  0  0
 22 28  2  0  0  0  0
 22 39  1  0  0  0  0
 23 40  1  0  0  0  0
 24 26  2  0  0  0  0
 24 27  1  0  0  0  0
 25 41  1  0  0  0  0
 25 42  1  0  0  0  0
 25 43  1  0  0  0  0
 26 44  1  0  0  0  0
 28 45  1  0  0  0  0
 28 46  1  0  0  0  0
 29 47  1  0  0  0  0
 29 48  1  0  0  0  0
 29 49  1  0  0  0  0
 30 50  1  0  0  0  0
 30 51  1  0  0  0  0
 30 52  1  0  0  0  0
M  END
> <PUBCHEM_COMPOUND_CID>
91668194

> <PUBCHEM_COMPOUND_CANONICALIZED>
1

> <PUBCHEM_CACTVS_COMPLEXITY>
643

> <PUBCHEM_CACTVS_HBOND_ACCEPTOR>
9

> <PUBCHEM_CACTVS_HBOND_DONOR>
2

> <PUBCHEM_CACTVS_ROTATABLE_BOND>
6

> <PUBCHEM_CACTVS_SUBSKEYS>
AAADceB78QAAAAAAAAAAAAAAAAAAAWLFgAAsAAAAAAAAAFgB/gAAHwAYAAAACCjBlwYv9L/MFACqATd3dACQjC0RsqAZUKAtfFCGTMBE6EgVhCgKHgrQIKAAAAAAAAAAAAAAAAAAAAAAAAAAAAAAAAAAAA==

> <PUBCHEM_IUPAC_OPENEYE_NAME>
N-[(3R,4R)-4-fluoro-1-[6-[(3-methoxy-1-methyl-pyrazol-4-yl)amino]-9-methyl-purin-2-yl]pyrrolidin-3-yl]prop-2-enamide

> <PUBCHEM_IUPAC_CAS_NAME>
N-[(3R,4R)-4-fluoro-1-[6-[(3-methoxy-1-methyl-4-pyrazolyl)amino]-9-methyl-2-purinyl]-3-pyrrolidinyl]-2-propenamide

> <PUBCHEM_IUPAC_NAME_MARKUP>
<I>N</I>-[(3<I>R</I>,4<I>R</I>)-4-fluoro-1-[6-[(3-methoxy-1-methylpyrazol-4-yl)amino]-9-methylpurin-2-yl]pyrrolidin-3-yl]prop-2-enamide

> <PUBCHEM_IUPAC_NAME>
N-[(3R,4R)-4-fluoro-1-[6-[(3-methoxy-1-methylpyrazol-4-yl)amino]-9-methylpurin-2-yl]pyrrolidin-3-yl]prop-2-enamide

> <PUBCHEM_IUPAC_SYSTEMATIC_NAME>
N-[(3R,4R)-4-fluoranyl-1-[6-[(3-methoxy-1-methyl-pyrazol-4-yl)amino]-9-methyl-purin-2-yl]pyrrolidin-3-yl]prop-2-enamide

> <PUBCHEM_IUPAC_TRADITIONAL_NAME>
N-[(3R,4R)-4-fluoro-1-[6-[(3-methoxy-1-methyl-pyrazol-4-yl)amino]-9-methyl-purin-2-yl]pyrrolidin-3-yl]acrylamide

> <PUBCHEM_IUPAC_INCHI>
InChI=1S/C18H22FN9O2/c1-5-13(29)21-11-8-28(6-10(11)19)18-23-15(14-16(24-18)26(2)9-20-14)22-12-7-27(3)25-17(12)30-4/h5,7,9-11H,1,6,8H2,2-4H3,(H,21,29)(H,22,23,24)/t10-,11-/m1/s1

> <PUBCHEM_IUPAC_INCHIKEY>
JYIUNVOCEFIUIU-GHMZBOCLSA-N

> <PUBCHEM_XLOGP3_AA>
1.2

> <PUBCHEM_EXACT_MASS>
415.18804914

> <PUBCHEM_MOLECULAR_FORMULA>
C18H22FN9O2

> <PUBCHEM_MOLECULAR_WEIGHT>
415.4

> <PUBCHEM_OPENEYE_CAN_SMILES>
CN1C=C(C(=N1)OC)NC2=C3C(=NC(=N2)N4CC(C(C4)F)NC(=O)C=C)N(C=N3)C

> <PUBCHEM_OPENEYE_ISO_SMILES>
CN1C=C(C(=N1)OC)NC2=C3C(=NC(=N2)N4C[C@H]([C@@H](C4)F)NC(=O)C=C)N(C=N3)C

> <PUBCHEM_CACTVS_TPSA>
115

> <PUBCHEM_MONOISOTOPIC_WEIGHT>
415.18804914

> <PUBCHEM_TOTAL_CHARGE>
0

> <PUBCHEM_HEAVY_ATOM_COUNT>
30

> <PUBCHEM_ATOM_DEF_STEREO_COUNT>
2

> <PUBCHEM_ATOM_UDEF_STEREO_COUNT>
0

> <PUBCHEM_BOND_DEF_STEREO_COUNT>
0

> <PUBCHEM_BOND_UDEF_STEREO_COUNT>
0

> <PUBCHEM_ISOTOPIC_ATOM_COUNT>
0

> <PUBCHEM_COMPONENT_COUNT>
1

> <PUBCHEM_CACTVS_TAUTO_COUNT>
6

> <PUBCHEM_COORDINATE_TYPE>
1
5
255

> <PUBCHEM_BONDANNOTATIONS>
14  1  5
10  21  8
10  23  8
11  12  8
11  26  8
12  27  8
19  21  8
20  21  8
24  26  8
24  27  8
13  5  6
6  17  8
6  19  8
7  17  8
7  20  8
8  19  8
8  23  8

$$$$
126715380
  -OEChem-11282412102D

 67 71  0     1  0  0  0  0  0999 V2000
    4.5981   -3.1073    0.0000 O   0  0  0  0  0  0  0  0  0  0  0  0
    9.4983    3.7558    0.0000 O   0  0  0  0  0  0  0  0  0  0  0  0
    4.5981   -5.1073    0.0000 N   0  0  0  0  0  0  0  0  0  0  0  0
    2.8660   -6.1073    0.0000 N   0  0  0  0  0  0  0  0  0  0  0  0
    6.3301   -3.1073    0.0000 N   0  0  0  0  0  0  0  0  0  0  0  0
    8.1424   -1.9120    0.0000 N   0  0  0  0  0  0  0  0  0  0  0  0
    7.7852    1.3923    0.0000 N   0  0  0  0  0  0  0  0  0  0  0  0
    7.4280    3.0871    0.0000 N   0  0  0  0  0  0  0  0  0  0  0  0
    9.0744    2.5490    0.0000 N   0  0  0  0  0  0  0  0  0  0  0  0
    7.7415    5.6557    0.0000 N   0  0  0  0  0  0  0  0  0  0  0  0
    8.6920    5.3450    0.0000 N   0  0  0  0  0  0  0  0  0  0  0  0
    3.7320   -4.6073    0.0000 C   0  0  0  0  0  0  0  0  0  0  0  0
    4.5981   -6.1073    0.0000 C   0  0  0  0  0  0  0  0  0  0  0  0
    2.8660   -5.1073    0.0000 C   0  0  0  0  0  0  0  0  0  0  0  0
    3.7320   -6.6073    0.0000 C   0  0  0  0  0  0  0  0  0  0  0  0
    5.4641   -4.6073    0.0000 C   0  0  2  0  0  0  0  0  0  0  0  0
    6.3301   -5.1073    0.0000 C   0  0  0  0  0  0  0  0  0  0  0  0
    5.4641   -3.6073    0.0000 C   0  0  0  0  0  0  0  0  0  0  0  0
    2.0000   -6.6073    0.0000 C   0  0  0  0  0  0  0  0  0  0  0  0
    6.3301   -2.1073    0.0000 C   0  0  0  0  0  0  0  0  0  0  0  0
    7.1962   -1.6073    0.0000 C   0  0  0  0  0  0  0  0  0  0  0  0
    7.1962   -0.6073    0.0000 C   0  0  0  0  0  0  0  0  0  0  0  0
    8.1424   -0.3025    0.0000 C   0  0  0  0  0  0  0  0  0  0  0  0
    5.4641   -1.6073    0.0000 C   0  0  0  0  0  0  0  0  0  0  0  0
    6.3301   -0.1073    0.0000 C   0  0  0  0  0  0  0  0  0  0  0  0
    8.7260   -1.1073    0.0000 C   0  0  0  0  0  0  0  0  0  0  0  0
    5.4641   -0.6073    0.0000 C   0  0  0  0  0  0  0  0  0  0  0  0
    8.4530    0.6480    0.0000 C   0  0  0  0  0  0  0  0  0  0  0  0
    9.4315    0.8542    0.0000 C   0  0  0  0  0  0  0  0  0  0  0  0
    8.0958    2.3428    0.0000 C   0  0  0  0  0  0  0  0  0  0  0  0
    9.7422    1.8047    0.0000 C   0  0  0  0  0  0  0  0  0  0  0  0
    7.7387    4.0376    0.0000 C   0  0  0  0  0  0  0  0  0  0  0  0
    7.1523    4.8477    0.0000 C   0  0  0  0  0  0  0  0  0  0  0  0
    8.6903    4.3450    0.0000 C   0  0  0  0  0  0  0  0  0  0  0  0
    7.4341    6.6073    0.0000 C   0  0  0  0  0  0  0  0  0  0  0  0
   10.4125    4.1610    0.0000 C   0  0  0  0  0  0  0  0  0  0  0  0
    4.1306   -4.1323    0.0000 H   0  0  0  0  0  0  0  0  0  0  0  0
    3.3335   -4.1323    0.0000 H   0  0  0  0  0  0  0  0  0  0  0  0
    4.8101   -6.6899    0.0000 H   0  0  0  0  0  0  0  0  0  0  0  0
    5.2087   -5.9996    0.0000 H   0  0  0  0  0  0  0  0  0  0  0  0
    2.6540   -4.5246    0.0000 H   0  0  0  0  0  0  0  0  0  0  0  0
    2.2554   -5.2149    0.0000 H   0  0  0  0  0  0  0  0  0  0  0  0
    3.3335   -7.0822    0.0000 H   0  0  0  0  0  0  0  0  0  0  0  0
    4.1306   -7.0822    0.0000 H   0  0  0  0  0  0  0  0  0  0  0  0
    5.4641   -5.2273    0.0000 H   0  0  0  0  0  0  0  0  0  0  0  0
    6.0201   -5.6442    0.0000 H   0  0  0  0  0  0  0  0  0  0  0  0
    6.8671   -5.4173    0.0000 H   0  0  0  0  0  0  0  0  0  0  0  0
    6.6401   -4.5703    0.0000 H   0  0  0  0  0  0  0  0  0  0  0  0
    1.6900   -6.0703    0.0000 H   0  0  0  0  0  0  0  0  0  0  0  0
    1.4631   -6.9173    0.0000 H   0  0  0  0  0  0  0  0  0  0  0  0
    2.3100   -7.1442    0.0000 H   0  0  0  0  0  0  0  0  0  0  0  0
    6.8671   -3.4173    0.0000 H   0  0  0  0  0  0  0  0  0  0  0  0
    4.9272   -1.9173    0.0000 H   0  0  0  0  0  0  0  0  0  0  0  0
    8.3350   -2.5013    0.0000 H   0  0  0  0  0  0  0  0  0  0  0  0
    6.3301    0.5127    0.0000 H   0  0  0  0  0  0  0  0  0  0  0  0
    9.3460   -1.1073    0.0000 H   0  0  0  0  0  0  0  0  0  0  0  0
    4.9272   -0.2973    0.0000 H   0  0  0  0  0  0  0  0  0  0  0  0
    9.8456    0.3927    0.0000 H   0  0  0  0  0  0  0  0  0  0  0  0
   10.3489    1.9326    0.0000 H   0  0  0  0  0  0  0  0  0  0  0  0
    6.8213    2.9593    0.0000 H   0  0  0  0  0  0  0  0  0  0  0  0
    6.5323    4.8487    0.0000 H   0  0  0  0  0  0  0  0  0  0  0  0
    8.0241    6.7978    0.0000 H   0  0  0  0  0  0  0  0  0  0  0  0
    7.2435    7.1972    0.0000 H   0  0  0  0  0  0  0  0  0  0  0  0
    6.8441    6.4167    0.0000 H   0  0  0  0  0  0  0  0  0  0  0  0
   10.6637    3.5942    0.0000 H   0  0  0  0  0  0  0  0  0  0  0  0
   10.9793    4.4122    0.0000 H   0  0  0  0  0  0  0  0  0  0  0  0
   10.1613    4.7278    0.0000 H   0  0  0  0  0  0  0  0  0  0  0  0
  1 18  2  0  0  0  0
  2 34  1  0  0  0  0
  2 36  1  0  0  0  0
  3 12  1  0  0  0  0
  3 13  1  0  0  0  0
  3 16  1  0  0  0  0
  4 14  1  0  0  0  0
  4 15  1  0  0  0  0
  4 19  1  0  0  0  0
  5 18  1  0  0  0  0
  5 20  1  0  0  0  0
  5 52  1  0  0  0  0
  6 21  1  0  0  0  0
  6 26  1  0  0  0  0
  6 54  1  0  0  0  0
  7 28  2  0  0  0  0
  7 30  1  0  0  0  0
  8 30  1  0  0  0  0
  8 32  1  0  0  0  0
  8 60  1  0  0  0  0
  9 30  2  0  0  0  0
  9 31  1  0  0  0  0
 10 11  1  0  0  0  0
 10 33  1  0  0  0  0
 10 35  1  0  0  0  0
 11 34  2  0  0  0  0
 12 14  1  0  0  0  0
 12 37  1  0  0  0  0
 12 38  1  0  0  0  0
 13 15  1  0  0  0  0
 13 39  1  0  0  0  0
 13 40  1  0  0  0  0
 14 41  1  0  0  0  0
 14 42  1  0  0  0  0
 15 43  1  0  0  0  0
 15 44  1  0  0  0  0
 16 17  1  1  0  0  0
 16 18  1  0  0  0  0
 16 45  1  0  0  0  0
 17 46  1  0  0  0  0
 17 47  1  0  0  0  0
 17 48  1  0  0  0  0
 19 49  1  0  0  0  0
 19 50  1  0  0  0  0
 19 51  1  0  0  0  0
 20 21  1  0  0  0  0
 20 24  2  0  0  0  0
 21 22  2  0  0  0  0
 22 23  1  0  0  0  0
 22 25  1  0  0  0  0
 23 26  2  0  0  0  0
 23 28  1  0  0  0  0
 24 27  1  0  0  0  0
 24 53  1  0  0  0  0
 25 27  2  0  0  0  0
 25 55  1  0  0  0  0
 26 56  1  0  0  0  0
 27 57  1  0  0  0  0
 28 29  1  0  0  0  0
 29 31  2  0  0  0  0
 29 58  1  0  0  0  0
 31 59  1  0  0  0  0
 32 33  2  0  0  0  0
 32 34  1  0  0  0  0
 33 61  1  0  0  0  0
 35 62  1  0  0  0  0
 35 63  1  0  0  0  0
 35 64  1  0  0  0  0
 36 65  1  0  0  0  0
 36 66  1  0  0  0  0
 36 67  1  0  0  0  0
M  END
> <PUBCHEM_COMPOUND_CID>
126715380

> <PUBCHEM_COMPOUND_CANONICALIZED>
1

> <PUBCHEM_CACTVS_COMPLEXITY>
736

> <PUBCHEM_CACTVS_HBOND_ACCEPTOR>
8

> <PUBCHEM_CACTVS_HBOND_DONOR>
3

> <PUBCHEM_CACTVS_ROTATABLE_BOND>
7

> <PUBCHEM_CACTVS_SUBSKEYS>
AAADceB78AAAAAAAAAAAAAAAAAAAAWLAAAA8WIAAAAAAAFgB/gAAHgAYAAAADCjBngY/1PfJlACqAzV3dACSjCkxsqAZ2aG9fJiObOLE+fmVpChqnArY6CcQgMAOgAAAQAACACAAAACAAAQAQAAAAAAAAA==

> <PUBCHEM_IUPAC_OPENEYE_NAME>
(2R)-N-[3-[2-[(3-methoxy-1-methyl-pyrazol-4-yl)amino]pyrimidin-4-yl]-1H-indol-7-yl]-2-(4-methylpiperazin-1-yl)propanamide

> <PUBCHEM_IUPAC_CAS_NAME>
(2R)-N-[3-[2-[(3-methoxy-1-methyl-4-pyrazolyl)amino]-4-pyrimidinyl]-1H-indol-7-yl]-2-(4-methyl-1-piperazinyl)propanamide

> <PUBCHEM_IUPAC_NAME_MARKUP>
(2<I>R</I>)-<I>N</I>-[3-[2-[(3-methoxy-1-methylpyrazol-4-yl)amino]pyrimidin-4-yl]-1<I>H</I>-indol-7-yl]-2-(4-methylpiperazin-1-yl)propanamide

> <PUBCHEM_IUPAC_NAME>
(2R)-N-[3-[2-[(3-methoxy-1-methylpyrazol-4-yl)amino]pyrimidin-4-yl]-1H-indol-7-yl]-2-(4-methylpiperazin-1-yl)propanamide

> <PUBCHEM_IUPAC_SYSTEMATIC_NAME>
(2R)-N-[3-[2-[(3-methoxy-1-methyl-pyrazol-4-yl)amino]pyrimidin-4-yl]-1H-indol-7-yl]-2-(4-methylpiperazin-1-yl)propanamide

> <PUBCHEM_IUPAC_TRADITIONAL_NAME>
(2R)-N-[3-[2-[(3-methoxy-1-methyl-pyrazol-4-yl)amino]pyrimidin-4-yl]-1H-indol-7-yl]-2-(4-methylpiperazino)propionamide

> <PUBCHEM_IUPAC_INCHI>
InChI=1S/C25H31N9O2/c1-16(34-12-10-32(2)11-13-34)23(35)28-20-7-5-6-17-18(14-27-22(17)20)19-8-9-26-25(29-19)30-21-15-33(3)31-24(21)36-4/h5-9,14-16,27H,10-13H2,1-4H3,(H,28,35)(H,26,29,30)/t16-/m1/s1

> <PUBCHEM_IUPAC_INCHIKEY>
CVCVOSPZEVINRM-MRXNPFEDSA-N

> <PUBCHEM_XLOGP3_AA>
1.9

> <PUBCHEM_EXACT_MASS>
489.26007127

> <PUBCHEM_MOLECULAR_FORMULA>
C25H31N9O2

> <PUBCHEM_MOLECULAR_WEIGHT>
489.6

> <PUBCHEM_OPENEYE_CAN_SMILES>
CC(C(=O)NC1=CC=CC2=C1NC=C2C3=NC(=NC=C3)NC4=CN(N=C4OC)C)N5CCN(CC5)C

> <PUBCHEM_OPENEYE_ISO_SMILES>
C[C@H](C(=O)NC1=CC=CC2=C1NC=C2C3=NC(=NC=C3)NC4=CN(N=C4OC)C)N5CCN(CC5)C

> <PUBCHEM_CACTVS_TPSA>
116

> <PUBCHEM_MONOISOTOPIC_WEIGHT>
489.26007127

> <PUBCHEM_TOTAL_CHARGE>
0

> <PUBCHEM_HEAVY_ATOM_COUNT>
36

> <PUBCHEM_ATOM_DEF_STEREO_COUNT>
1

> <PUBCHEM_ATOM_UDEF_STEREO_COUNT>
0

> <PUBCHEM_BOND_DEF_STEREO_COUNT>
0

> <PUBCHEM_BOND_UDEF_STEREO_COUNT>
0

> <PUBCHEM_ISOTOPIC_ATOM_COUNT>
0

> <PUBCHEM_COMPONENT_COUNT>
1

> <PUBCHEM_CACTVS_TAUTO_COUNT>
-1

> <PUBCHEM_COORDINATE_TYPE>
1
5
255

> <PUBCHEM_BONDANNOTATIONS>
10  11  8
10  33  8
11  34  8
16  17  5
20  21  8
20  24  8
21  22  8
22  23  8
22  25  8
23  26  8
24  27  8
25  27  8
28  29  8
29  31  8
32  33  8
32  34  8
6  21  8
6  26  8
7  28  8
7  30  8
9  30  8
9  31  8

$$$$
139377809
  -OEChem-11282412102D

 76 79  0     1  0  0  0  0  0999 V2000
    3.7320   -5.1307    0.0000 Cl  0  0  0  0  0  0  0  0  0  0  0  0
    2.0000   -4.1307    0.0000 F   0  0  0  0  0  0  0  0  0  0  0  0
   10.6603   -1.1307    0.0000 O   0  0  0  0  0  0  0  0  0  0  0  0
    6.3301   -0.6307    0.0000 O   0  0  0  0  0  0  0  0  0  0  0  0
    3.7320   -0.1307    0.0000 O   0  0  0  0  0  0  0  0  0  0  0  0
    8.9282    1.8693    0.0000 N   0  0  3  0  0  0  0  0  0  0  0  0
   10.0160    4.2172    0.0000 N   0  0  0  0  0  0  0  0  0  0  0  0
    7.1962    0.8693    0.0000 N   0  0  0  0  0  0  0  0  0  0  0  0
    8.9282   -2.1307    0.0000 N   0  0  0  0  0  0  0  0  0  0  0  0
    7.1962   -2.1307    0.0000 N   0  0  0  0  0  0  0  0  0  0  0  0
    5.4641   -2.1307    0.0000 N   0  0  0  0  0  0  0  0  0  0  0  0
    8.0622   -3.6307    0.0000 N   0  0  0  0  0  0  0  0  0  0  0  0
    9.4282    3.4081    0.0000 C   0  0  2  0  0  0  0  0  0  0  0  0
    8.4282    3.4081    0.0000 C   0  0  0  0  0  0  0  0  0  0  0  0
    9.7372    2.4571    0.0000 C   0  0  0  0  0  0  0  0  0  0  0  0
    8.1192    2.4571    0.0000 C   0  0  0  0  0  0  0  0  0  0  0  0
    8.9282    0.8693    0.0000 C   0  0  0  0  0  0  0  0  0  0  0  0
    9.6092    5.1307    0.0000 C   0  0  0  0  0  0  0  0  0  0  0  0
   11.0105    4.1126    0.0000 C   0  0  0  0  0  0  0  0  0  0  0  0
    8.0622    0.3693    0.0000 C   0  0  0  0  0  0  0  0  0  0  0  0
    9.7942    0.3693    0.0000 C   0  0  0  0  0  0  0  0  0  0  0  0
    8.0622   -0.6307    0.0000 C   0  0  0  0  0  0  0  0  0  0  0  0
    9.7942   -0.6307    0.0000 C   0  0  0  0  0  0  0  0  0  0  0  0
    8.9282   -1.1307    0.0000 C   0  0  0  0  0  0  0  0  0  0  0  0
    6.3301    0.3693    0.0000 C   0  0  0  0  0  0  0  0  0  0  0  0
    8.0622   -2.6307    0.0000 C   0  0  0  0  0  0  0  0  0  0  0  0
    3.7320   -1.1307    0.0000 C   0  0  0  0  0  0  0  0  0  0  0  0
   11.5263   -0.6307    0.0000 C   0  0  0  0  0  0  0  0  0  0  0  0
    3.7320   -2.1307    0.0000 C   0  0  0  0  0  0  0  0  0  0  0  0
    5.4641    0.8693    0.0000 C   0  0  0  0  0  0  0  0  0  0  0  0
    4.5981   -2.6307    0.0000 C   0  0  0  0  0  0  0  0  0  0  0  0
    2.7320   -1.1307    0.0000 C   0  0  0  0  0  0  0  0  0  0  0  0
    4.7320   -1.1307    0.0000 C   0  0  0  0  0  0  0  0  0  0  0  0
    6.3301   -2.6307    0.0000 C   0  0  0  0  0  0  0  0  0  0  0  0
    2.8660   -2.6307    0.0000 C   0  0  0  0  0  0  0  0  0  0  0  0
    4.5981   -3.6307    0.0000 C   0  0  0  0  0  0  0  0  0  0  0  0
    2.8660   -3.6307    0.0000 C   0  0  0  0  0  0  0  0  0  0  0  0
    6.3301   -3.6307    0.0000 C   0  0  0  0  0  0  0  0  0  0  0  0
    3.7320   -4.1307    0.0000 C   0  0  0  0  0  0  0  0  0  0  0  0
    7.1962   -4.1307    0.0000 C   0  0  0  0  0  0  0  0  0  0  0  0
    5.4641    1.8693    0.0000 C   0  0  0  0  0  0  0  0  0  0  0  0
   10.0406    3.3112    0.0000 H   0  0  0  0  0  0  0  0  0  0  0  0
    8.4930    4.0247    0.0000 H   0  0  0  0  0  0  0  0  0  0  0  0
    7.8218    3.5370    0.0000 H   0  0  0  0  0  0  0  0  0  0  0  0
   10.0472    1.9202    0.0000 H   0  0  0  0  0  0  0  0  0  0  0  0
   10.3036    2.7093    0.0000 H   0  0  0  0  0  0  0  0  0  0  0  0
    7.5528    2.7093    0.0000 H   0  0  0  0  0  0  0  0  0  0  0  0
    7.8092    1.9202    0.0000 H   0  0  0  0  0  0  0  0  0  0  0  0
   10.1757    5.3829    0.0000 H   0  0  0  0  0  0  0  0  0  0  0  0
    9.3571    5.6971    0.0000 H   0  0  0  0  0  0  0  0  0  0  0  0
    9.0428    4.8785    0.0000 H   0  0  0  0  0  0  0  0  0  0  0  0
   10.9457    3.4960    0.0000 H   0  0  0  0  0  0  0  0  0  0  0  0
   11.6271    4.0478    0.0000 H   0  0  0  0  0  0  0  0  0  0  0  0
   11.0753    4.7292    0.0000 H   0  0  0  0  0  0  0  0  0  0  0  0
   10.3312    0.6793    0.0000 H   0  0  0  0  0  0  0  0  0  0  0  0
    7.5252   -0.9407    0.0000 H   0  0  0  0  0  0  0  0  0  0  0  0
    7.1962    1.4893    0.0000 H   0  0  0  0  0  0  0  0  0  0  0  0
    9.4651   -2.4407    0.0000 H   0  0  0  0  0  0  0  0  0  0  0  0
   11.8363   -1.1676    0.0000 H   0  0  0  0  0  0  0  0  0  0  0  0
   12.0632   -0.3207    0.0000 H   0  0  0  0  0  0  0  0  0  0  0  0
   11.2163   -0.0938    0.0000 H   0  0  0  0  0  0  0  0  0  0  0  0
    4.9272    0.5593    0.0000 H   0  0  0  0  0  0  0  0  0  0  0  0
    2.7320   -0.5107    0.0000 H   0  0  0  0  0  0  0  0  0  0  0  0
    2.1120   -1.1307    0.0000 H   0  0  0  0  0  0  0  0  0  0  0  0
    2.7320   -1.7507    0.0000 H   0  0  0  0  0  0  0  0  0  0  0  0
    4.7320   -1.7507    0.0000 H   0  0  0  0  0  0  0  0  0  0  0  0
    5.3520   -1.1307    0.0000 H   0  0  0  0  0  0  0  0  0  0  0  0
    4.7320   -0.5107    0.0000 H   0  0  0  0  0  0  0  0  0  0  0  0
    2.3291   -2.3207    0.0000 H   0  0  0  0  0  0  0  0  0  0  0  0
    5.4641   -1.5107    0.0000 H   0  0  0  0  0  0  0  0  0  0  0  0
    5.1350   -3.9407    0.0000 H   0  0  0  0  0  0  0  0  0  0  0  0
    3.1951    0.1793    0.0000 H   0  0  0  0  0  0  0  0  0  0  0  0
    5.7932   -3.9407    0.0000 H   0  0  0  0  0  0  0  0  0  0  0  0
    7.1962   -4.7507    0.0000 H   0  0  0  0  0  0  0  0  0  0  0  0
    6.0010    2.1793    0.0000 H   0  0  0  0  0  0  0  0  0  0  0  0
    4.9272    2.1793    0.0000 H   0  0  0  0  0  0  0  0  0  0  0  0
  1 39  1  0  0  0  0
  2 37  1  0  0  0  0
  3 23  1  0  0  0  0
  3 28  1  0  0  0  0
  4 25  2  0  0  0  0
  5 27  1  0  0  0  0
  5 72  1  0  0  0  0
  6 15  1  0  0  0  0
  6 16  1  0  0  0  0
  6 17  1  0  0  0  0
 13  7  1  1  0  0  0
  7 18  1  0  0  0  0
  7 19  1  0  0  0  0
  8 20  1  0  0  0  0
  8 25  1  0  0  0  0
  8 57  1  0  0  0  0
  9 24  1  0  0  0  0
  9 26  1  0  0  0  0
  9 58  1  0  0  0  0
 10 26  1  0  0  0  0
 10 34  2  0  0  0  0
 11 31  1  0  0  0  0
 11 34  1  0  0  0  0
 11 70  1  0  0  0  0
 12 26  2  0  0  0  0
 12 40  1  0  0  0  0
 13 14  1  0  0  0  0
 13 15  1  0  0  0  0
 13 42  1  0  0  0  0
 14 16  1  0  0  0  0
 14 43  1  0  0  0  0
 14 44  1  0  0  0  0
 15 45  1  0  0  0  0
 15 46  1  0  0  0  0
 16 47  1  0  0  0  0
 16 48  1  0  0  0  0
 17 20  1  0  0  0  0
 17 21  2  0  0  0  0
 18 49  1  0  0  0  0
 18 50  1  0  0  0  0
 18 51  1  0  0  0  0
 19 52  1  0  0  0  0
 19 53  1  0  0  0  0
 19 54  1  0  0  0  0
 20 22  2  0  0  0  0
 21 23  1  0  0  0  0
 21 55  1  0  0  0  0
 22 24  1  0  0  0  0
 22 56  1  0  0  0  0
 23 24  2  0  0  0  0
 25 30  1  0  0  0  0
 27 29  1  0  0  0  0
 27 32  1  0  0  0  0
 27 33  1  0  0  0  0
 28 59  1  0  0  0  0
 28 60  1  0  0  0  0
 28 61  1  0  0  0  0
 29 31  1  0  0  0  0
 29 35  2  0  0  0  0
 30 41  2  0  0  0  0
 30 62  1  0  0  0  0
 31 36  2  0  0  0  0
 32 63  1  0  0  0  0
 32 64  1  0  0  0  0
 32 65  1  0  0  0  0
 33 66  1  0  0  0  0
 33 67  1  0  0  0  0
 33 68  1  0  0  0  0
 34 38  1  0  0  0  0
 35 37  1  0  0  0  0
 35 69  1  0  0  0  0
 36 39  1  0  0  0  0
 36 71  1  0  0  0  0
 37 39  2  0  0  0  0
 38 40  2  0  0  0  0
 38 73  1  0  0  0  0
 40 74  1  0  0  0  0
 41 75  1  0  0  0  0
 41 76  1  0  0  0  0
M  END
> <PUBCHEM_COMPOUND_CID>
139377809

> <PUBCHEM_COMPOUND_CANONICALIZED>
1

> <PUBCHEM_CACTVS_COMPLEXITY>
885

> <PUBCHEM_CACTVS_HBOND_ACCEPTOR>
10

> <PUBCHEM_CACTVS_HBOND_DONOR>
4

> <PUBCHEM_CACTVS_ROTATABLE_BOND>
10

> <PUBCHEM_CACTVS_SUBSKEYS>
AAADcfB7sQAEAAAAAAAAAAAAAAAAAWAAAAA8YIAAAAAAAAAB0AAAHwIQCAAADG7Bmi4/9pfIFgCoAjd3dACCiCkxJ6AJ2CA/ftiObuLF+tuVdChu1BvY+Kew0OMOhECAAgYCECAIgQAEDAQgQAAAAAAAAA==

> <PUBCHEM_IUPAC_OPENEYE_NAME>
N-[5-[[4-[5-chloro-4-fluoro-2-(1-hydroxy-1-methyl-ethyl)anilino]pyrimidin-2-yl]amino]-2-[(3R)-3-(dimethylamino)pyrrolidin-1-yl]-4-methoxy-phenyl]prop-2-enamide

> <PUBCHEM_IUPAC_CAS_NAME>
N-[5-[[4-[5-chloro-4-fluoro-2-(2-hydroxypropan-2-yl)anilino]-2-pyrimidinyl]amino]-2-[(3R)-3-(dimethylamino)-1-pyrrolidinyl]-4-methoxyphenyl]-2-propenamide

> <PUBCHEM_IUPAC_NAME_MARKUP>
<I>N</I>-[5-[[4-[5-chloro-4-fluoro-2-(2-hydroxypropan-2-yl)anilino]pyrimidin-2-yl]amino]-2-[(3<I>R</I>)-3-(dimethylamino)pyrrolidin-1-yl]-4-methoxyphenyl]prop-2-enamide

> <PUBCHEM_IUPAC_NAME>
N-[5-[[4-[5-chloro-4-fluoro-2-(2-hydroxypropan-2-yl)anilino]pyrimidin-2-yl]amino]-2-[(3R)-3-(dimethylamino)pyrrolidin-1-yl]-4-methoxyphenyl]prop-2-enamide

> <PUBCHEM_IUPAC_SYSTEMATIC_NAME>
N-[5-[[4-[[5-chloranyl-4-fluoranyl-2-(2-oxidanylpropan-2-yl)phenyl]amino]pyrimidin-2-yl]amino]-2-[(3R)-3-(dimethylamino)pyrrolidin-1-yl]-4-methoxy-phenyl]prop-2-enamide

> <PUBCHEM_IUPAC_TRADITIONAL_NAME>
N-[5-[[4-[5-chloro-4-fluoro-2-(1-hydroxy-1-methyl-ethyl)anilino]pyrimidin-2-yl]amino]-2-[(3R)-3-(dimethylamino)pyrrolidino]-4-methoxy-phenyl]acrylamide

> <PUBCHEM_IUPAC_INCHI>
InChI=1S/C29H35ClFN7O3/c1-7-27(39)34-22-14-23(25(41-6)15-24(22)38-11-9-17(16-38)37(4)5)35-28-32-10-8-26(36-28)33-21-13-19(30)20(31)12-18(21)29(2,3)40/h7-8,10,12-15,17,40H,1,9,11,16H2,2-6H3,(H,34,39)(H2,32,33,35,36)/t17-/m1/s1

> <PUBCHEM_IUPAC_INCHIKEY>
BTMKEDDEMKKSEF-QGZVFWFLSA-N

> <PUBCHEM_XLOGP3_AA>
5

> <PUBCHEM_EXACT_MASS>
583.2473939

> <PUBCHEM_MOLECULAR_FORMULA>
C29H35ClFN7O3

> <PUBCHEM_MOLECULAR_WEIGHT>
584.1

> <PUBCHEM_OPENEYE_CAN_SMILES>
CC(C)(C1=CC(=C(C=C1NC2=NC(=NC=C2)NC3=C(C=C(C(=C3)NC(=O)C=C)N4CCC(C4)N(C)C)OC)Cl)F)O

> <PUBCHEM_OPENEYE_ISO_SMILES>
CC(C)(C1=CC(=C(C=C1NC2=NC(=NC=C2)NC3=C(C=C(C(=C3)NC(=O)C=C)N4CC[C@H](C4)N(C)C)OC)Cl)F)O

> <PUBCHEM_CACTVS_TPSA>
115

> <PUBCHEM_MONOISOTOPIC_WEIGHT>
583.2473939

> <PUBCHEM_TOTAL_CHARGE>
0

> <PUBCHEM_HEAVY_ATOM_COUNT>
41

> <PUBCHEM_ATOM_DEF_STEREO_COUNT>
1

> <PUBCHEM_ATOM_UDEF_STEREO_COUNT>
0

> <PUBCHEM_BOND_DEF_STEREO_COUNT>
0

> <PUBCHEM_BOND_UDEF_STEREO_COUNT>
0

> <PUBCHEM_ISOTOPIC_ATOM_COUNT>
0

> <PUBCHEM_COMPONENT_COUNT>
1

> <PUBCHEM_CACTVS_TAUTO_COUNT>
-1

> <PUBCHEM_COORDINATE_TYPE>
1
5
255

> <PUBCHEM_BONDANNOTATIONS>
10  26  8
10  34  8
12  26  8
12  40  8
17  20  8
17  21  8
20  22  8
21  23  8
22  24  8
23  24  8
29  31  8
29  35  8
31  36  8
34  38  8
35  37  8
36  39  8
37  39  8
38  40  8
13  7  5

$$$$
139467635
  -OEChem-11282412102D

 73 78  0     1  0  0  0  0  0999 V2000
   15.1086   -2.4141    0.0000 O   0  0  0  0  0  0  0  0  0  0  0  0
   11.9171    2.7628    0.0000 O   0  0  0  0  0  0  0  0  0  0  0  0
   12.8956   -0.9540    0.0000 N   0  0  0  0  0  0  0  0  0  0  0  0
   11.6065    0.2028    0.0000 N   0  0  0  0  0  0  0  0  0  0  0  0
    4.5981    2.0075    0.0000 N   0  0  0  0  0  0  0  0  0  0  0  0
    2.8660    3.0075    0.0000 N   0  0  0  0  0  0  0  0  0  0  0  0
   12.1901    1.0075    0.0000 N   0  0  0  0  0  0  0  0  0  0  0  0
    9.7942    0.0075    0.0000 N   0  0  0  0  0  0  0  0  0  0  0  0
    8.0622    0.0075    0.0000 N   0  0  0  0  0  0  0  0  0  0  0  0
    8.9282    1.5075    0.0000 N   0  0  0  0  0  0  0  0  0  0  0  0
   14.1141   -2.3096    0.0000 C   0  0  2  0  0  0  0  0  0  0  0  0
   14.0110   -3.2983    0.0000 C   0  0  0  0  0  0  0  0  0  0  0  0
   13.0392   -3.5075    0.0000 C   0  0  0  0  0  0  0  0  0  0  0  0
   13.2063   -1.9045    0.0000 C   0  0  0  0  0  0  0  0  0  0  0  0
   12.5385   -2.6488    0.0000 C   0  0  0  0  0  0  0  0  0  0  0  0
   14.5208   -1.3960    0.0000 C   0  0  0  0  0  0  0  0  0  0  0  0
   11.5600   -2.4426    0.0000 C   0  0  0  0  0  0  0  0  0  0  0  0
   15.5153   -1.2915    0.0000 C   0  0  0  0  0  0  0  0  0  0  0  0
   11.9171   -0.7477    0.0000 C   0  0  0  0  0  0  0  0  0  0  0  0
   11.2493   -1.4920    0.0000 C   0  0  0  0  0  0  0  0  0  0  0  0
    4.5981    3.0075    0.0000 C   0  0  0  0  0  0  0  0  0  0  0  0
    3.7320    1.5075    0.0000 C   0  0  0  0  0  0  0  0  0  0  0  0
    3.7320    3.5075    0.0000 C   0  0  0  0  0  0  0  0  0  0  0  0
    2.8660    2.0075    0.0000 C   0  0  0  0  0  0  0  0  0  0  0  0
   10.6603    0.5075    0.0000 C   0  0  0  0  0  0  0  0  0  0  0  0
    5.4641    1.5075    0.0000 C   0  0  0  0  0  0  0  0  0  0  0  0
   10.6603    1.5075    0.0000 C   0  0  0  0  0  0  0  0  0  0  0  0
   11.6065    1.8122    0.0000 C   0  0  0  0  0  0  0  0  0  0  0  0
    2.0000    3.5075    0.0000 C   0  0  0  0  0  0  0  0  0  0  0  0
   13.1901    1.0075    0.0000 C   0  0  0  0  0  0  0  0  0  0  0  0
    6.3301    2.0075    0.0000 C   0  0  0  0  0  0  0  0  0  0  0  0
    5.4641    0.5075    0.0000 C   0  0  0  0  0  0  0  0  0  0  0  0
    9.7942    2.0075    0.0000 C   0  0  0  0  0  0  0  0  0  0  0  0
    7.1962    0.5075    0.0000 C   0  0  0  0  0  0  0  0  0  0  0  0
    8.9282    0.5075    0.0000 C   0  0  0  0  0  0  0  0  0  0  0  0
    7.1962    1.5075    0.0000 C   0  0  0  0  0  0  0  0  0  0  0  0
    6.3301    0.0075    0.0000 C   0  0  0  0  0  0  0  0  0  0  0  0
   13.6901    1.8735    0.0000 C   0  0  0  0  0  0  0  0  0  0  0  0
   14.6901    1.8735    0.0000 C   0  0  0  0  0  0  0  0  0  0  0  0
   14.0771   -3.9148    0.0000 H   0  0  0  0  0  0  0  0  0  0  0  0
   14.6310   -3.2974    0.0000 H   0  0  0  0  0  0  0  0  0  0  0  0
   12.4738   -3.7618    0.0000 H   0  0  0  0  0  0  0  0  0  0  0  0
   13.2327   -4.0966    0.0000 H   0  0  0  0  0  0  0  0  0  0  0  0
   14.5641   -0.7776    0.0000 H   0  0  0  0  0  0  0  0  0  0  0  0
   13.9192   -1.2461    0.0000 H   0  0  0  0  0  0  0  0  0  0  0  0
   11.1459   -2.9040    0.0000 H   0  0  0  0  0  0  0  0  0  0  0  0
   15.3608   -2.9805    0.0000 H   0  0  0  0  0  0  0  0  0  0  0  0
   15.5802   -1.9081    0.0000 H   0  0  0  0  0  0  0  0  0  0  0  0
   16.1320   -1.2267    0.0000 H   0  0  0  0  0  0  0  0  0  0  0  0
   15.4505   -0.6749    0.0000 H   0  0  0  0  0  0  0  0  0  0  0  0
   10.6426   -1.3642    0.0000 H   0  0  0  0  0  0  0  0  0  0  0  0
    5.2087    2.8998    0.0000 H   0  0  0  0  0  0  0  0  0  0  0  0
    4.8101    3.5901    0.0000 H   0  0  0  0  0  0  0  0  0  0  0  0
    3.3335    1.0326    0.0000 H   0  0  0  0  0  0  0  0  0  0  0  0
    4.1306    1.0326    0.0000 H   0  0  0  0  0  0  0  0  0  0  0  0
    4.1306    3.9825    0.0000 H   0  0  0  0  0  0  0  0  0  0  0  0
    3.3335    3.9825    0.0000 H   0  0  0  0  0  0  0  0  0  0  0  0
    2.2554    2.1152    0.0000 H   0  0  0  0  0  0  0  0  0  0  0  0
    2.6540    1.4249    0.0000 H   0  0  0  0  0  0  0  0  0  0  0  0
    2.3100    4.0444    0.0000 H   0  0  0  0  0  0  0  0  0  0  0  0
    1.4631    3.8175    0.0000 H   0  0  0  0  0  0  0  0  0  0  0  0
    1.6900    2.9706    0.0000 H   0  0  0  0  0  0  0  0  0  0  0  0
   13.0824    0.3969    0.0000 H   0  0  0  0  0  0  0  0  0  0  0  0
   13.7727    0.7955    0.0000 H   0  0  0  0  0  0  0  0  0  0  0  0
    6.3301    2.6275    0.0000 H   0  0  0  0  0  0  0  0  0  0  0  0
    4.9272    0.1975    0.0000 H   0  0  0  0  0  0  0  0  0  0  0  0
    9.7942    2.6275    0.0000 H   0  0  0  0  0  0  0  0  0  0  0  0
    7.7331    1.8175    0.0000 H   0  0  0  0  0  0  0  0  0  0  0  0
    6.3301   -0.6125    0.0000 H   0  0  0  0  0  0  0  0  0  0  0  0
    8.0622   -0.6125    0.0000 H   0  0  0  0  0  0  0  0  0  0  0  0
   13.3801    2.4105    0.0000 H   0  0  0  0  0  0  0  0  0  0  0  0
   15.0001    1.3366    0.0000 H   0  0  0  0  0  0  0  0  0  0  0  0
   15.0001    2.4105    0.0000 H   0  0  0  0  0  0  0  0  0  0  0  0
 11  1  1  6  0  0  0
  1 47  1  0  0  0  0
  2 28  2  0  0  0  0
  3 14  1  0  0  0  0
  3 19  2  0  0  0  0
  4  7  1  0  0  0  0
  4 19  1  0  0  0  0
  4 25  1  0  0  0  0
  5 21  1  0  0  0  0
  5 22  1  0  0  0  0
  5 26  1  0  0  0  0
  6 23  1  0  0  0  0
  6 24  1  0  0  0  0
  6 29  1  0  0  0  0
  7 28  1  0  0  0  0
  7 30  1  0  0  0  0
  8 25  2  0  0  0  0
  8 35  1  0  0  0  0
  9 34  1  0  0  0  0
  9 35  1  0  0  0  0
  9 70  1  0  0  0  0
 10 33  1  0  0  0  0
 10 35  2  0  0  0  0
 11 12  1  0  0  0  0
 11 14  1  0  0  0  0
 11 16  1  0  0  0  0
 12 13  1  0  0  0  0
 12 40  1  0  0  0  0
 12 41  1  0  0  0  0
 13 15  1  0  0  0  0
 13 42  1  0  0  0  0
 13 43  1  0  0  0  0
 14 15  2  0  0  0  0
 15 17  1  0  0  0  0
 16 18  1  0  0  0  0
 16 44  1  0  0  0  0
 16 45  1  0  0  0  0
 17 20  2  0  0  0  0
 17 46  1  0  0  0  0
 18 48  1  0  0  0  0
 18 49  1  0  0  0  0
 18 50  1  0  0  0  0
 19 20  1  0  0  0  0
 20 51  1  0  0  0  0
 21 23  1  0  0  0  0
 21 52  1  0  0  0  0
 21 53  1  0  0  0  0
 22 24  1  0  0  0  0
 22 54  1  0  0  0  0
 22 55  1  0  0  0  0
 23 56  1  0  0  0  0
 23 57  1  0  0  0  0
 24 58  1  0  0  0  0
 24 59  1  0  0  0  0
 25 27  1  0  0  0  0
 26 31  2  0  0  0  0
 26 32  1  0  0  0  0
 27 28  1  0  0  0  0
 27 33  2  0  0  0  0
 29 60  1  0  0  0  0
 29 61  1  0  0  0  0
 29 62  1  0  0  0  0
 30 38  1  0  0  0  0
 30 63  1  0  0  0  0
 30 64  1  0  0  0  0
 31 36  1  0  0  0  0
 31 65  1  0  0  0  0
 32 37  2  0  0  0  0
 32 66  1  0  0  0  0
 33 67  1  0  0  0  0
 34 36  2  0  0  0  0
 34 37  1  0  0  0  0
 36 68  1  0  0  0  0
 37 69  1  0  0  0  0
 38 39  2  0  0  0  0
 38 71  1  0  0  0  0
 39 72  1  0  0  0  0
 39 73  1  0  0  0  0
M  END
> <PUBCHEM_COMPOUND_CID>
139467635

> <PUBCHEM_COMPOUND_CANONICALIZED>
1

> <PUBCHEM_CACTVS_COMPLEXITY>
875

> <PUBCHEM_CACTVS_HBOND_ACCEPTOR>
9

> <PUBCHEM_CACTVS_HBOND_DONOR>
2

> <PUBCHEM_CACTVS_ROTATABLE_BOND>
7

> <PUBCHEM_CACTVS_SUBSKEYS>
AAADcfB78AAAAAAAAAAAAAAAAAAAAeIAAAA8WLEAAAAAAFgB8AAAHgAYCAAADEzBngQ/8JfIEgCoAzd3dASChCk1AqAf2CE4bNiKburA2dGUdIhs1gPY2OeQ0OIOAACAAAAAAAAAAQAAAAAAAYAAAQgAAA==

> <PUBCHEM_IUPAC_OPENEYE_NAME>
2-allyl-1-[(7R)-7-ethyl-7-hydroxy-5,6-dihydrocyclopenta[b]pyridin-2-yl]-6-[4-(4-methylpiperazin-1-yl)anilino]pyrazolo[3,4-d]pyrimidin-3-one

> <PUBCHEM_IUPAC_CAS_NAME>
1-[(7R)-7-ethyl-7-hydroxy-5,6-dihydrocyclopenta[b]pyridin-2-yl]-6-[4-(4-methyl-1-piperazinyl)anilino]-2-prop-2-enyl-3-pyrazolo[3,4-d]pyrimidinone

> <PUBCHEM_IUPAC_NAME_MARKUP>
1-[(7<I>R</I>)-7-ethyl-7-hydroxy-5,6-dihydrocyclopenta[b]pyridin-2-yl]-6-[4-(4-methylpiperazin-1-yl)anilino]-2-prop-2-enylpyrazolo[3,4-d]pyrimidin-3-one

> <PUBCHEM_IUPAC_NAME>
1-[(7R)-7-ethyl-7-hydroxy-5,6-dihydrocyclopenta[b]pyridin-2-yl]-6-[4-(4-methylpiperazin-1-yl)anilino]-2-prop-2-enylpyrazolo[3,4-d]pyrimidin-3-one

> <PUBCHEM_IUPAC_SYSTEMATIC_NAME>
1-[(7R)-7-ethyl-7-oxidanyl-5,6-dihydrocyclopenta[b]pyridin-2-yl]-6-[[4-(4-methylpiperazin-1-yl)phenyl]amino]-2-prop-2-enyl-pyrazolo[3,4-d]pyrimidin-3-one

> <PUBCHEM_IUPAC_TRADITIONAL_NAME>
2-allyl-1-[(7R)-7-ethyl-7-hydroxy-1-pyrindan-2-yl]-6-[4-(4-methylpiperazino)anilino]pyrazolo[3,4-d]pyrimidin-3-one

> <PUBCHEM_IUPAC_INCHI>
InChI=1S/C29H34N8O2/c1-4-14-36-27(38)23-19-30-28(31-21-7-9-22(10-8-21)35-17-15-34(3)16-18-35)33-26(23)37(36)24-11-6-20-12-13-29(39,5-2)25(20)32-24/h4,6-11,19,39H,1,5,12-18H2,2-3H3,(H,30,31,33)/t29-/m1/s1

> <PUBCHEM_IUPAC_INCHIKEY>
OXTSYWDBUVRXFF-GDLZYMKVSA-N

> <PUBCHEM_XLOGP3_AA>
3.7

> <PUBCHEM_EXACT_MASS>
526.28047236

> <PUBCHEM_MOLECULAR_FORMULA>
C29H34N8O2

> <PUBCHEM_MOLECULAR_WEIGHT>
526.6

> <PUBCHEM_OPENEYE_CAN_SMILES>
CCC1(CCC2=C1N=C(C=C2)N3C4=NC(=NC=C4C(=O)N3CC=C)NC5=CC=C(C=C5)N6CCN(CC6)C)O

> <PUBCHEM_OPENEYE_ISO_SMILES>
CC[C@]1(CCC2=C1N=C(C=C2)N3C4=NC(=NC=C4C(=O)N3CC=C)NC5=CC=C(C=C5)N6CCN(CC6)C)O

> <PUBCHEM_CACTVS_TPSA>
101

> <PUBCHEM_MONOISOTOPIC_WEIGHT>
526.28047236

> <PUBCHEM_TOTAL_CHARGE>
0

> <PUBCHEM_HEAVY_ATOM_COUNT>
39

> <PUBCHEM_ATOM_DEF_STEREO_COUNT>
1

> <PUBCHEM_ATOM_UDEF_STEREO_COUNT>
0

> <PUBCHEM_BOND_DEF_STEREO_COUNT>
0

> <PUBCHEM_BOND_UDEF_STEREO_COUNT>
0

> <PUBCHEM_ISOTOPIC_ATOM_COUNT>
0

> <PUBCHEM_COMPONENT_COUNT>
1

> <PUBCHEM_CACTVS_TAUTO_COUNT>
-1

> <PUBCHEM_COORDINATE_TYPE>
1
5
255

> <PUBCHEM_BONDANNOTATIONS>
11  1  6
10  33  8
10  35  8
14  15  8
15  17  8
17  20  8
19  20  8
25  27  8
26  31  8
26  32  8
27  28  8
27  33  8
3  14  8
3  19  8
31  36  8
32  37  8
34  36  8
34  37  8
4  25  8
4  7  8
7  28  8
8  25  8
8  35  8

$$$$
146421275
  -OEChem-11282412102D

 76 81  0     1  0  0  0  0  0999 V2000
    2.0000    0.5809    0.0000 O   0  0  0  0  0  0  0  0  0  0  0  0
   13.0433   -4.7309    0.0000 O   0  0  0  0  0  0  0  0  0  0  0  0
    2.8660    2.0809    0.0000 N   0  0  0  0  0  0  0  0  0  0  0  0
    3.7320   -0.4191    0.0000 N   0  0  3  0  0  0  0  0  0  0  0  0
    2.8660    4.4951    0.0000 N   0  0  0  0  0  0  0  0  0  0  0  0
    6.4103   -0.7239    0.0000 N   0  0  0  0  0  0  0  0  0  0  0  0
    6.4103    0.8856    0.0000 N   0  0  0  0  0  0  0  0  0  0  0  0
    8.5775    0.8856    0.0000 N   0  0  0  0  0  0  0  0  0  0  0  0
    9.5238    0.5809    0.0000 N   0  0  0  0  0  0  0  0  0  0  0  0
    2.8660    3.4951    0.0000 C   0  0  0  0  0  0  0  0  0  0  0  0
    3.5731    2.7880    0.0000 C   0  0  0  0  0  0  0  0  0  0  0  0
    2.1589    2.7880    0.0000 C   0  0  0  0  0  0  0  0  0  0  0  0
    3.7320    0.5809    0.0000 C   0  0  2  0  0  0  0  0  0  0  0  0
    2.8660    1.0809    0.0000 C   0  0  0  0  0  0  0  0  0  0  0  0
    4.5981    1.0809    0.0000 C   0  0  0  0  0  0  0  0  0  0  0  0
    4.5981   -0.9191    0.0000 C   0  0  0  0  0  0  0  0  0  0  0  0
    2.8660   -0.9191    0.0000 C   0  0  0  0  0  0  0  0  0  0  0  0
    5.4641    0.5809    0.0000 C   0  0  0  0  0  0  0  0  0  0  0  0
    5.4641   -0.4191    0.0000 C   0  0  0  0  0  0  0  0  0  0  0  0
    2.0000    4.9951    0.0000 C   0  0  0  0  0  0  0  0  0  0  0  0
    3.7320    4.9951    0.0000 C   0  0  0  0  0  0  0  0  0  0  0  0
    2.8660   -1.9191    0.0000 C   0  0  0  0  0  0  0  0  0  0  0  0
    2.0000   -0.4191    0.0000 C   0  0  0  0  0  0  0  0  0  0  0  0
    6.9939    0.0809    0.0000 C   0  0  0  0  0  0  0  0  0  0  0  0
    7.9939    0.0809    0.0000 C   0  0  0  0  0  0  0  0  0  0  0  0
    8.5775   -0.7239    0.0000 C   0  0  0  0  0  0  0  0  0  0  0  0
    9.5281   -0.4132    0.0000 C   0  0  0  0  0  0  0  0  0  0  0  0
    8.3713   -1.7024    0.0000 C   0  0  0  0  0  0  0  0  0  0  0  0
   10.2724   -1.0810    0.0000 C   0  0  0  0  0  0  0  0  0  0  0  0
   10.0661   -2.0596    0.0000 C   0  0  0  0  0  0  0  0  0  0  0  0
    9.1156   -2.3702    0.0000 C   0  0  0  0  0  0  0  0  0  0  0  0
   10.8104   -2.7274    0.0000 C   0  0  0  0  0  0  0  0  0  0  0  0
   10.6042   -3.7059    0.0000 C   0  0  0  0  0  0  0  0  0  0  0  0
   11.7610   -2.4167    0.0000 C   0  0  0  0  0  0  0  0  0  0  0  0
    9.6537   -4.0166    0.0000 C   0  0  0  0  0  0  0  0  0  0  0  0
   11.3485   -4.3738    0.0000 C   0  0  0  0  0  0  0  0  0  0  0  0
   12.5053   -3.0846    0.0000 C   0  0  0  0  0  0  0  0  0  0  0  0
   12.2990   -4.0631    0.0000 C   0  0  0  0  0  0  0  0  0  0  0  0
    9.4475   -4.9951    0.0000 C   0  0  0  0  0  0  0  0  0  0  0  0
    3.4388    3.7323    0.0000 H   0  0  0  0  0  0  0  0  0  0  0  0
    4.0115    2.3496    0.0000 H   0  0  0  0  0  0  0  0  0  0  0  0
    4.0115    3.2264    0.0000 H   0  0  0  0  0  0  0  0  0  0  0  0
    1.7205    3.2264    0.0000 H   0  0  0  0  0  0  0  0  0  0  0  0
    1.7205    2.3496    0.0000 H   0  0  0  0  0  0  0  0  0  0  0  0
    3.1951    0.2709    0.0000 H   0  0  0  0  0  0  0  0  0  0  0  0
    4.9966    1.5558    0.0000 H   0  0  0  0  0  0  0  0  0  0  0  0
    4.1996    1.5558    0.0000 H   0  0  0  0  0  0  0  0  0  0  0  0
    4.1996   -1.3941    0.0000 H   0  0  0  0  0  0  0  0  0  0  0  0
    4.9966   -1.3941    0.0000 H   0  0  0  0  0  0  0  0  0  0  0  0
    2.8660   -0.2991    0.0000 H   0  0  0  0  0  0  0  0  0  0  0  0
    6.6029   -1.3132    0.0000 H   0  0  0  0  0  0  0  0  0  0  0  0
    2.3100    5.5320    0.0000 H   0  0  0  0  0  0  0  0  0  0  0  0
    1.4631    5.3051    0.0000 H   0  0  0  0  0  0  0  0  0  0  0  0
    1.6900    4.4581    0.0000 H   0  0  0  0  0  0  0  0  0  0  0  0
    4.0420    4.4581    0.0000 H   0  0  0  0  0  0  0  0  0  0  0  0
    4.2690    5.3051    0.0000 H   0  0  0  0  0  0  0  0  0  0  0  0
    3.4220    5.5320    0.0000 H   0  0  0  0  0  0  0  0  0  0  0  0
    2.2460   -1.9191    0.0000 H   0  0  0  0  0  0  0  0  0  0  0  0
    2.8660   -2.5391    0.0000 H   0  0  0  0  0  0  0  0  0  0  0  0
    3.4860   -1.9191    0.0000 H   0  0  0  0  0  0  0  0  0  0  0  0
    2.3100    0.1178    0.0000 H   0  0  0  0  0  0  0  0  0  0  0  0
    1.4631   -0.1091    0.0000 H   0  0  0  0  0  0  0  0  0  0  0  0
    1.6900   -0.9561    0.0000 H   0  0  0  0  0  0  0  0  0  0  0  0
   10.0241    0.9470    0.0000 H   0  0  0  0  0  0  0  0  0  0  0  0
    7.7820   -1.8950    0.0000 H   0  0  0  0  0  0  0  0  0  0  0  0
   10.8617   -0.8884    0.0000 H   0  0  0  0  0  0  0  0  0  0  0  0
    8.9878   -2.9769    0.0000 H   0  0  0  0  0  0  0  0  0  0  0  0
   11.8888   -1.8101    0.0000 H   0  0  0  0  0  0  0  0  0  0  0  0
    9.5664   -3.4028    0.0000 H   0  0  0  0  0  0  0  0  0  0  0  0
    9.0340   -3.9960    0.0000 H   0  0  0  0  0  0  0  0  0  0  0  0
   11.2207   -4.9804    0.0000 H   0  0  0  0  0  0  0  0  0  0  0  0
   13.0946   -2.8920    0.0000 H   0  0  0  0  0  0  0  0  0  0  0  0
    8.8408   -4.8672    0.0000 H   0  0  0  0  0  0  0  0  0  0  0  0
    9.3196   -5.6018    0.0000 H   0  0  0  0  0  0  0  0  0  0  0  0
   10.0542   -5.1229    0.0000 H   0  0  0  0  0  0  0  0  0  0  0  0
   13.6327   -4.5383    0.0000 H   0  0  0  0  0  0  0  0  0  0  0  0
  1 14  2  0  0  0  0
  2 38  1  0  0  0  0
  2 76  1  0  0  0  0
  3 11  1  0  0  0  0
  3 12  1  0  0  0  0
  3 14  1  0  0  0  0
  4 13  1  0  0  0  0
  4 16  1  0  0  0  0
  4 17  1  0  0  0  0
  5 10  1  0  0  0  0
  5 20  1  0  0  0  0
  5 21  1  0  0  0  0
  6 19  1  0  0  0  0
  6 24  1  0  0  0  0
  6 51  1  0  0  0  0
  7 18  1  0  0  0  0
  7 24  2  0  0  0  0
  8  9  1  0  0  0  0
  8 25  2  0  0  0  0
  9 27  1  0  0  0  0
  9 64  1  0  0  0  0
 10 11  1  0  0  0  0
 10 12  1  0  0  0  0
 10 40  1  0  0  0  0
 11 41  1  0  0  0  0
 11 42  1  0  0  0  0
 12 43  1  0  0  0  0
 12 44  1  0  0  0  0
 13 14  1  6  0  0  0
 13 15  1  0  0  0  0
 13 45  1  0  0  0  0
 15 18  1  0  0  0  0
 15 46  1  0  0  0  0
 15 47  1  0  0  0  0
 16 19  1  0  0  0  0
 16 48  1  0  0  0  0
 16 49  1  0  0  0  0
 17 22  1  0  0  0  0
 17 23  1  0  0  0  0
 17 50  1  0  0  0  0
 18 19  2  0  0  0  0
 20 52  1  0  0  0  0
 20 53  1  0  0  0  0
 20 54  1  0  0  0  0
 21 55  1  0  0  0  0
 21 56  1  0  0  0  0
 21 57  1  0  0  0  0
 22 58  1  0  0  0  0
 22 59  1  0  0  0  0
 22 60  1  0  0  0  0
 23 61  1  0  0  0  0
 23 62  1  0  0  0  0
 23 63  1  0  0  0  0
 24 25  1  0  0  0  0
 25 26  1  0  0  0  0
 26 27  2  0  0  0  0
 26 28  1  0  0  0  0
 27 29  1  0  0  0  0
 28 31  2  0  0  0  0
 28 65  1  0  0  0  0
 29 30  2  0  0  0  0
 29 66  1  0  0  0  0
 30 31  1  0  0  0  0
 30 32  1  0  0  0  0
 31 67  1  0  0  0  0
 32 33  2  0  0  0  0
 32 34  1  0  0  0  0
 33 35  1  0  0  0  0
 33 36  1  0  0  0  0
 34 37  2  0  0  0  0
 34 68  1  0  0  0  0
 35 39  1  0  0  0  0
 35 69  1  0  0  0  0
 35 70  1  0  0  0  0
 36 38  2  0  0  0  0
 36 71  1  0  0  0  0
 37 38  1  0  0  0  0
 37 72  1  0  0  0  0
 39 73  1  0  0  0  0
 39 74  1  0  0  0  0
 39 75  1  0  0  0  0
M  END
> <PUBCHEM_COMPOUND_CID>
146421275

> <PUBCHEM_COMPOUND_CANONICALIZED>
1

> <PUBCHEM_CACTVS_COMPLEXITY>
866

> <PUBCHEM_CACTVS_HBOND_ACCEPTOR>
6

> <PUBCHEM_CACTVS_HBOND_DONOR>
3

> <PUBCHEM_CACTVS_ROTATABLE_BOND>
6

> <PUBCHEM_CACTVS_SUBSKEYS>
AAADcfB7sAAAAAAAAAAAAAAAAABYAWLAAAA8YIAAAAAAAFgB/AAAHgAYCAAADCzBnwQz1vfrkgCqAydydACShC2hMqAZuSG+fJiIbrLC2fOU9Ahs3hPI2CecyfAe4AABQAASAADAAAKAACQAAAAAAAAAAA==

> <PUBCHEM_IUPAC_OPENEYE_NAME>
[3-(dimethylamino)azetidin-1-yl]-[(6S)-2-[6-(2-ethyl-4-hydroxy-phenyl)-1H-indazol-3-yl]-5-isopropyl-3,4,6,7-tetrahydroimidazo[4,5-c]pyridin-6-yl]methanone

> <PUBCHEM_IUPAC_CAS_NAME>
[3-(dimethylamino)-1-azetidinyl]-[(6S)-2-[6-(2-ethyl-4-hydroxyphenyl)-1H-indazol-3-yl]-5-propan-2-yl-3,4,6,7-tetrahydroimidazo[4,5-c]pyridin-6-yl]methanone

> <PUBCHEM_IUPAC_NAME_MARKUP>
[3-(dimethylamino)azetidin-1-yl]-[(6<I>S</I>)-2-[6-(2-ethyl-4-hydroxyphenyl)-1<I>H</I>-indazol-3-yl]-5-propan-2-yl-3,4,6,7-tetrahydroimidazo[4,5-c]pyridin-6-yl]methanone

> <PUBCHEM_IUPAC_NAME>
[3-(dimethylamino)azetidin-1-yl]-[(6S)-2-[6-(2-ethyl-4-hydroxyphenyl)-1H-indazol-3-yl]-5-propan-2-yl-3,4,6,7-tetrahydroimidazo[4,5-c]pyridin-6-yl]methanone

> <PUBCHEM_IUPAC_SYSTEMATIC_NAME>
[3-(dimethylamino)azetidin-1-yl]-[(6S)-2-[6-(2-ethyl-4-oxidanyl-phenyl)-1H-indazol-3-yl]-5-propan-2-yl-3,4,6,7-tetrahydroimidazo[4,5-c]pyridin-6-yl]methanone

> <PUBCHEM_IUPAC_TRADITIONAL_NAME>
[3-(dimethylamino)azetidin-1-yl]-[(6S)-2-[6-(2-ethyl-4-hydroxy-phenyl)-1H-indazol-3-yl]-5-isopropyl-3,4,6,7-tetrahydroimidazo[4,5-c]pyridin-6-yl]methanone

> <PUBCHEM_IUPAC_INCHI>
InChI=1S/C30H37N7O2/c1-6-18-11-21(38)8-10-22(18)19-7-9-23-24(12-19)33-34-28(23)29-31-25-13-27(37(17(2)3)16-26(25)32-29)30(39)36-14-20(15-36)35(4)5/h7-12,17,20,27,38H,6,13-16H2,1-5H3,(H,31,32)(H,33,34)/t27-/m0/s1

> <PUBCHEM_IUPAC_INCHIKEY>
VQIIUJSNIKEMCK-MHZLTWQESA-N

> <PUBCHEM_XLOGP3_AA>
3.6

> <PUBCHEM_EXACT_MASS>
527.30087345

> <PUBCHEM_MOLECULAR_FORMULA>
C30H37N7O2

> <PUBCHEM_MOLECULAR_WEIGHT>
527.7

> <PUBCHEM_OPENEYE_CAN_SMILES>
CCC1=C(C=CC(=C1)O)C2=CC3=C(C=C2)C(=NN3)C4=NC5=C(N4)CN(C(C5)C(=O)N6CC(C6)N(C)C)C(C)C

> <PUBCHEM_OPENEYE_ISO_SMILES>
CCC1=C(C=CC(=C1)O)C2=CC3=C(C=C2)C(=NN3)C4=NC5=C(N4)CN([C@@H](C5)C(=O)N6CC(C6)N(C)C)C(C)C

> <PUBCHEM_CACTVS_TPSA>
104

> <PUBCHEM_MONOISOTOPIC_WEIGHT>
527.30087345

> <PUBCHEM_TOTAL_CHARGE>
0

> <PUBCHEM_HEAVY_ATOM_COUNT>
39

> <PUBCHEM_ATOM_DEF_STEREO_COUNT>
1

> <PUBCHEM_ATOM_UDEF_STEREO_COUNT>
0

> <PUBCHEM_BOND_DEF_STEREO_COUNT>
0

> <PUBCHEM_BOND_UDEF_STEREO_COUNT>
0

> <PUBCHEM_ISOTOPIC_ATOM_COUNT>
0

> <PUBCHEM_COMPONENT_COUNT>
1

> <PUBCHEM_CACTVS_TAUTO_COUNT>
-1

> <PUBCHEM_COORDINATE_TYPE>
1
5
255

> <PUBCHEM_BONDANNOTATIONS>
13  14  6
18  19  8
25  26  8
26  27  8
26  28  8
27  29  8
28  31  8
29  30  8
30  31  8
32  33  8
32  34  8
33  36  8
34  37  8
36  38  8
37  38  8
6  19  8
6  24  8
7  18  8
7  24  8
8  25  8
8  9  8
9  27  8

$$$$
155309155
  -OEChem-11282412102D

 62 66  0     0  0  0  0  0  0999 V2000
    7.2566    0.4729    0.0000 F   0  0  0  0  0  0  0  0  0  0  0  0
    5.9209    1.9615    0.0000 O   0  0  0  0  0  0  0  0  0  0  0  0
    9.2619   -4.3774    0.0000 O   0  0  0  0  0  0  0  0  0  0  0  0
    4.6783   -3.4501    0.0000 N   0  0  0  0  0  0  0  0  0  0  0  0
    2.8660   -3.6453    0.0000 N   0  0  0  0  0  0  0  0  0  0  0  0
    2.0000   -2.1453    0.0000 N   0  0  0  0  0  0  0  0  0  0  0  0
    2.8660   -0.6453    0.0000 N   0  0  0  0  0  0  0  0  0  0  0  0
    9.2619   -2.6453    0.0000 N   0  0  0  0  0  0  0  0  0  0  0  0
    4.2746    2.4996    0.0000 N   0  0  0  0  0  0  0  0  0  0  0  0
    5.5637    3.6563    0.0000 N   0  0  0  0  0  0  0  0  0  0  0  0
    5.2619   -2.6453    0.0000 C   0  0  0  0  0  0  0  0  0  0  0  0
    4.6783   -1.8406    0.0000 C   0  0  0  0  0  0  0  0  0  0  0  0
    3.7320   -2.1453    0.0000 C   0  0  0  0  0  0  0  0  0  0  0  0
    3.7320   -3.1453    0.0000 C   0  0  0  0  0  0  0  0  0  0  0  0
    6.2619   -2.6453    0.0000 C   0  0  0  0  0  0  0  0  0  0  0  0
    4.9889   -0.8901    0.0000 C   0  0  0  0  0  0  0  0  0  0  0  0
    4.9889   -4.4006    0.0000 C   0  0  0  0  0  0  0  0  0  0  0  0
    2.8660   -1.6453    0.0000 C   0  0  0  0  0  0  0  0  0  0  0  0
    6.7619   -3.5114    0.0000 C   0  0  0  0  0  0  0  0  0  0  0  0
    6.7619   -1.7793    0.0000 C   0  0  0  0  0  0  0  0  0  0  0  0
    5.9674   -0.6839    0.0000 C   0  0  0  0  0  0  0  0  0  0  0  0
    4.3211   -0.1458    0.0000 C   0  0  0  0  0  0  0  0  0  0  0  0
    7.7619   -3.5114    0.0000 C   0  0  0  0  0  0  0  0  0  0  0  0
    7.7619   -1.7793    0.0000 C   0  0  0  0  0  0  0  0  0  0  0  0
    8.2619   -2.6453    0.0000 C   0  0  0  0  0  0  0  0  0  0  0  0
    2.0000   -3.1453    0.0000 C   0  0  0  0  0  0  0  0  0  0  0  0
    6.2781    0.2666    0.0000 C   0  0  0  0  0  0  0  0  0  0  0  0
    4.6318    0.8047    0.0000 C   0  0  0  0  0  0  0  0  0  0  0  0
    5.6103    1.0110    0.0000 C   0  0  0  0  0  0  0  0  0  0  0  0
    9.7619   -3.5114    0.0000 C   0  0  0  0  0  0  0  0  0  0  0  0
    5.2531    2.7058    0.0000 C   0  0  0  0  0  0  0  0  0  0  0  0
   10.7619   -3.5114    0.0000 C   0  0  0  0  0  0  0  0  0  0  0  0
   11.2619   -4.3774    0.0000 C   0  0  0  0  0  0  0  0  0  0  0  0
    3.6067    3.2439    0.0000 C   0  0  0  0  0  0  0  0  0  0  0  0
   11.2619   -2.6453    0.0000 C   0  0  0  0  0  0  0  0  0  0  0  0
    4.8959    4.4006    0.0000 C   0  0  0  0  0  0  0  0  0  0  0  0
    3.9174    4.1944    0.0000 C   0  0  0  0  0  0  0  0  0  0  0  0
    2.6282    3.0376    0.0000 C   0  0  0  0  0  0  0  0  0  0  0  0
    4.3996   -4.5932    0.0000 H   0  0  0  0  0  0  0  0  0  0  0  0
    5.1815   -4.9899    0.0000 H   0  0  0  0  0  0  0  0  0  0  0  0
    5.5783   -4.2080    0.0000 H   0  0  0  0  0  0  0  0  0  0  0  0
    6.4519   -4.0483    0.0000 H   0  0  0  0  0  0  0  0  0  0  0  0
    6.4519   -1.2424    0.0000 H   0  0  0  0  0  0  0  0  0  0  0  0
    6.3815   -1.1453    0.0000 H   0  0  0  0  0  0  0  0  0  0  0  0
    3.7144   -0.2736    0.0000 H   0  0  0  0  0  0  0  0  0  0  0  0
    8.0719   -4.0483    0.0000 H   0  0  0  0  0  0  0  0  0  0  0  0
    8.0719   -1.2424    0.0000 H   0  0  0  0  0  0  0  0  0  0  0  0
    1.4631   -3.4553    0.0000 H   0  0  0  0  0  0  0  0  0  0  0  0
    4.2177    1.2662    0.0000 H   0  0  0  0  0  0  0  0  0  0  0  0
    2.3291   -0.3353    0.0000 H   0  0  0  0  0  0  0  0  0  0  0  0
    3.4030   -0.3353    0.0000 H   0  0  0  0  0  0  0  0  0  0  0  0
    9.5719   -2.1084    0.0000 H   0  0  0  0  0  0  0  0  0  0  0  0
   10.7249   -4.6874    0.0000 H   0  0  0  0  0  0  0  0  0  0  0  0
   11.5719   -4.9143    0.0000 H   0  0  0  0  0  0  0  0  0  0  0  0
   11.7988   -4.0674    0.0000 H   0  0  0  0  0  0  0  0  0  0  0  0
   11.8819   -2.6453    0.0000 H   0  0  0  0  0  0  0  0  0  0  0  0
   10.9519   -2.1084    0.0000 H   0  0  0  0  0  0  0  0  0  0  0  0
    5.0885    4.9899    0.0000 H   0  0  0  0  0  0  0  0  0  0  0  0
    3.5033    4.6558    0.0000 H   0  0  0  0  0  0  0  0  0  0  0  0
    2.5004    3.6443    0.0000 H   0  0  0  0  0  0  0  0  0  0  0  0
    2.0216    2.9098    0.0000 H   0  0  0  0  0  0  0  0  0  0  0  0
    2.7561    2.4310    0.0000 H   0  0  0  0  0  0  0  0  0  0  0  0
  1 27  1  0  0  0  0
  2 29  1  0  0  0  0
  2 31  1  0  0  0  0
  3 30  2  0  0  0  0
  4 11  1  0  0  0  0
  4 14  1  0  0  0  0
  4 17  1  0  0  0  0
  5 14  2  0  0  0  0
  5 26  1  0  0  0  0
  6 18  1  0  0  0  0
  6 26  2  0  0  0  0
  7 18  1  0  0  0  0
  7 50  1  0  0  0  0
  7 51  1  0  0  0  0
  8 25  1  0  0  0  0
  8 30  1  0  0  0  0
  8 52  1  0  0  0  0
  9 31  1  0  0  0  0
  9 34  2  0  0  0  0
 10 31  2  0  0  0  0
 10 36  1  0  0  0  0
 11 12  2  0  0  0  0
 11 15  1  0  0  0  0
 12 13  1  0  0  0  0
 12 16  1  0  0  0  0
 13 14  1  0  0  0  0
 13 18  2  0  0  0  0
 15 19  2  0  0  0  0
 15 20  1  0  0  0  0
 16 21  2  0  0  0  0
 16 22  1  0  0  0  0
 17 39  1  0  0  0  0
 17 40  1  0  0  0  0
 17 41  1  0  0  0  0
 19 23  1  0  0  0  0
 19 42  1  0  0  0  0
 20 24  2  0  0  0  0
 20 43  1  0  0  0  0
 21 27  1  0  0  0  0
 21 44  1  0  0  0  0
 22 28  2  0  0  0  0
 22 45  1  0  0  0  0
 23 25  2  0  0  0  0
 23 46  1  0  0  0  0
 24 25  1  0  0  0  0
 24 47  1  0  0  0  0
 26 48  1  0  0  0  0
 27 29  2  0  0  0  0
 28 29  1  0  0  0  0
 28 49  1  0  0  0  0
 30 32  1  0  0  0  0
 32 33  1  0  0  0  0
 32 35  2  0  0  0  0
 33 53  1  0  0  0  0
 33 54  1  0  0  0  0
 33 55  1  0  0  0  0
 34 37  1  0  0  0  0
 34 38  1  0  0  0  0
 35 56  1  0  0  0  0
 35 57  1  0  0  0  0
 36 37  2  0  0  0  0
 36 58  1  0  0  0  0
 37 59  1  0  0  0  0
 38 60  1  0  0  0  0
 38 61  1  0  0  0  0
 38 62  1  0  0  0  0
M  END
> <PUBCHEM_COMPOUND_CID>
155309155

> <PUBCHEM_COMPOUND_CANONICALIZED>
1

> <PUBCHEM_CACTVS_COMPLEXITY>
840

> <PUBCHEM_CACTVS_HBOND_ACCEPTOR>
8

> <PUBCHEM_CACTVS_HBOND_DONOR>
2

> <PUBCHEM_CACTVS_ROTATABLE_BOND>
6

> <PUBCHEM_CACTVS_SUBSKEYS>
AAADceB7sQAAAAAAAAAAAAAAAAAAAWAAAAA8eIEAAAAAAFgB/gAAHwAQAAAADAzBnww/9t/MFACoAzd3dACCiCkxIqAJ2CE+bNiMLuLE+duMNChs1BPI6KeQwPAOqAAAAAAAAABQAAAAAAAAAAAAAAAAAA==

> <PUBCHEM_IUPAC_OPENEYE_NAME>
N-[4-[4-amino-5-[3-fluoro-4-(4-methylpyrimidin-2-yl)oxy-phenyl]-7-methyl-pyrrolo[2,3-d]pyrimidin-6-yl]phenyl]-2-methyl-prop-2-enamide

> <PUBCHEM_IUPAC_CAS_NAME>
N-[4-[4-amino-5-[3-fluoro-4-[(4-methyl-2-pyrimidinyl)oxy]phenyl]-7-methyl-6-pyrrolo[2,3-d]pyrimidinyl]phenyl]-2-methyl-2-propenamide

> <PUBCHEM_IUPAC_NAME_MARKUP>
<I>N</I>-[4-[4-amino-5-[3-fluoro-4-(4-methylpyrimidin-2-yl)oxyphenyl]-7-methylpyrrolo[2,3-d]pyrimidin-6-yl]phenyl]-2-methylprop-2-enamide

> <PUBCHEM_IUPAC_NAME>
N-[4-[4-amino-5-[3-fluoro-4-(4-methylpyrimidin-2-yl)oxyphenyl]-7-methylpyrrolo[2,3-d]pyrimidin-6-yl]phenyl]-2-methylprop-2-enamide

> <PUBCHEM_IUPAC_SYSTEMATIC_NAME>
N-[4-[4-azanyl-5-[3-fluoranyl-4-(4-methylpyrimidin-2-yl)oxy-phenyl]-7-methyl-pyrrolo[2,3-d]pyrimidin-6-yl]phenyl]-2-methyl-prop-2-enamide

> <PUBCHEM_IUPAC_TRADITIONAL_NAME>
N-[4-[4-amino-5-[3-fluoro-4-(4-methylpyrimidin-2-yl)oxy-phenyl]-7-methyl-pyrrolo[2,3-d]pyrimidin-6-yl]phenyl]-2-methyl-acrylamide

> <PUBCHEM_IUPAC_INCHI>
InChI=1S/C28H24FN7O2/c1-15(2)27(37)35-19-8-5-17(6-9-19)24-22(23-25(30)32-14-33-26(23)36(24)4)18-7-10-21(20(29)13-18)38-28-31-12-11-16(3)34-28/h5-14H,1H2,2-4H3,(H,35,37)(H2,30,32,33)

> <PUBCHEM_IUPAC_INCHIKEY>
XOQVZSSDIQQUGO-UHFFFAOYSA-N

> <PUBCHEM_XLOGP3_AA>
4.3

> <PUBCHEM_EXACT_MASS>
509.19755120

> <PUBCHEM_MOLECULAR_FORMULA>
C28H24FN7O2

> <PUBCHEM_MOLECULAR_WEIGHT>
509.5

> <PUBCHEM_OPENEYE_CAN_SMILES>
CC1=NC(=NC=C1)OC2=C(C=C(C=C2)C3=C(N(C4=NC=NC(=C34)N)C)C5=CC=C(C=C5)NC(=O)C(=C)C)F

> <PUBCHEM_OPENEYE_ISO_SMILES>
CC1=NC(=NC=C1)OC2=C(C=C(C=C2)C3=C(N(C4=NC=NC(=C34)N)C)C5=CC=C(C=C5)NC(=O)C(=C)C)F

> <PUBCHEM_CACTVS_TPSA>
121

> <PUBCHEM_MONOISOTOPIC_WEIGHT>
509.19755120

> <PUBCHEM_TOTAL_CHARGE>
0

> <PUBCHEM_HEAVY_ATOM_COUNT>
38

> <PUBCHEM_ATOM_DEF_STEREO_COUNT>
0

> <PUBCHEM_ATOM_UDEF_STEREO_COUNT>
0

> <PUBCHEM_BOND_DEF_STEREO_COUNT>
0

> <PUBCHEM_BOND_UDEF_STEREO_COUNT>
0

> <PUBCHEM_ISOTOPIC_ATOM_COUNT>
0

> <PUBCHEM_COMPONENT_COUNT>
1

> <PUBCHEM_CACTVS_TAUTO_COUNT>
-1

> <PUBCHEM_COORDINATE_TYPE>
1
5
255

> <PUBCHEM_BONDANNOTATIONS>
10  31  8
10  36  8
11  12  8
12  13  8
13  14  8
13  18  8
15  19  8
15  20  8
16  21  8
16  22  8
19  23  8
20  24  8
21  27  8
22  28  8
23  25  8
24  25  8
27  29  8
28  29  8
34  37  8
36  37  8
4  11  8
4  14  8
5  14  8
5  26  8
6  18  8
6  26  8
9  31  8
9  34  8

$$$$
156538665
  -OEChem-11282412102D

 76 80  0     1  0  0  0  0  0999 V2000
    2.8660   -3.2741    0.0000 S   0  0  0  0  0  0  0  0  0  0  0  0
   10.7455   -2.3223    0.0000 F   0  0  0  0  0  0  0  0  0  0  0  0
    3.3660   -4.1401    0.0000 O   0  0  0  0  0  0  0  0  0  0  0  0
    2.3660   -2.4081    0.0000 O   0  0  0  0  0  0  0  0  0  0  0  0
    9.0173   -3.3290    0.0000 O   0  0  0  0  0  0  0  0  0  0  0  0
    3.7320   -0.3599    0.0000 N   0  0  3  0  0  0  0  0  0  0  0  0
    9.0058   -0.3290    0.0000 N   0  0  3  0  0  0  0  0  0  0  0  0
    6.3981    1.1193    0.0000 N   0  0  0  0  0  0  0  0  0  0  0  0
    7.2622    2.6643    0.0000 N   0  0  0  0  0  0  0  0  0  0  0  0
    8.1340    1.1676    0.0000 N   0  0  0  0  0  0  0  0  0  0  0  0
    9.8660    1.1743    0.0000 N   0  0  0  0  0  0  0  0  0  0  0  0
    3.7320   -1.7741    0.0000 C   0  0  2  0  0  0  0  0  0  0  0  0
    3.0249   -1.0670    0.0000 C   0  0  1  0  0  0  0  0  0  0  0  0
    4.4392   -1.0670    0.0000 C   0  0  0  0  0  0  0  0  0  0  0  0
    3.7320   -2.7741    0.0000 C   0  0  0  0  0  0  0  0  0  0  0  0
    2.0249   -1.0670    0.0000 C   0  0  0  0  0  0  0  0  0  0  0  0
    3.7320    0.6401    0.0000 C   0  0  0  0  0  0  0  0  0  0  0  0
    4.5981    1.1401    0.0000 C   0  0  0  0  0  0  0  0  0  0  0  0
    2.8660    1.1401    0.0000 C   0  0  0  0  0  0  0  0  0  0  0  0
    2.0000   -3.7741    0.0000 C   0  0  0  0  0  0  0  0  0  0  0  0
    4.5981    2.1401    0.0000 C   0  0  0  0  0  0  0  0  0  0  0  0
    3.7320    2.6401    0.0000 C   0  0  0  0  0  0  0  0  0  0  0  0
    2.8660    2.1401    0.0000 C   0  0  0  0  0  0  0  0  0  0  0  0
    5.4920    0.6055    0.0000 C   0  0  0  0  0  0  0  0  0  0  0  0
    3.7320    3.6401    0.0000 C   0  0  0  0  0  0  0  0  0  0  0  0
    5.4920    2.6748    0.0000 C   0  0  0  0  0  0  0  0  0  0  0  0
    9.0135   -2.3290    0.0000 C   0  0  1  0  0  0  0  0  0  0  0  0
    9.8776   -1.8257    0.0000 C   0  0  2  0  0  0  0  0  0  0  0  0
    8.1455   -1.8324    0.0000 C   0  0  0  0  0  0  0  0  0  0  0  0
    6.3981    2.1609    0.0000 C   0  0  0  0  0  0  0  0  0  0  0  0
    9.8737   -0.8257    0.0000 C   0  0  0  0  0  0  0  0  0  0  0  0
    8.1417   -0.8324    0.0000 C   0  0  0  0  0  0  0  0  0  0  0  0
    2.8660    4.1401    0.0000 C   0  0  0  0  0  0  0  0  0  0  0  0
    4.5981    4.1401    0.0000 C   0  0  0  0  0  0  0  0  0  0  0  0
    9.0019    0.6710    0.0000 C   0  0  0  0  0  0  0  0  0  0  0  0
    8.1301    2.1676    0.0000 C   0  0  0  0  0  0  0  0  0  0  0  0
    9.8853   -3.8257    0.0000 C   0  0  0  0  0  0  0  0  0  0  0  0
    8.9942    2.6710    0.0000 C   0  0  0  0  0  0  0  0  0  0  0  0
    9.8622    2.1743    0.0000 C   0  0  0  0  0  0  0  0  0  0  0  0
    4.3049   -2.0114    0.0000 H   0  0  0  0  0  0  0  0  0  0  0  0
    2.7877   -0.4942    0.0000 H   0  0  0  0  0  0  0  0  0  0  0  0
    4.8776   -1.5054    0.0000 H   0  0  0  0  0  0  0  0  0  0  0  0
    4.8776   -0.6286    0.0000 H   0  0  0  0  0  0  0  0  0  0  0  0
    3.9441   -3.3567    0.0000 H   0  0  0  0  0  0  0  0  0  0  0  0
    4.3426   -2.6664    0.0000 H   0  0  0  0  0  0  0  0  0  0  0  0
    2.0249   -0.4470    0.0000 H   0  0  0  0  0  0  0  0  0  0  0  0
    1.4049   -1.0670    0.0000 H   0  0  0  0  0  0  0  0  0  0  0  0
    2.0249   -1.6870    0.0000 H   0  0  0  0  0  0  0  0  0  0  0  0
    2.3291    0.8301    0.0000 H   0  0  0  0  0  0  0  0  0  0  0  0
    1.6900   -3.2372    0.0000 H   0  0  0  0  0  0  0  0  0  0  0  0
    1.4631   -4.0841    0.0000 H   0  0  0  0  0  0  0  0  0  0  0  0
    2.3100   -4.3110    0.0000 H   0  0  0  0  0  0  0  0  0  0  0  0
    2.3291    2.4501    0.0000 H   0  0  0  0  0  0  0  0  0  0  0  0
    5.4848   -0.0145    0.0000 H   0  0  0  0  0  0  0  0  0  0  0  0
    3.7320    4.2601    0.0000 H   0  0  0  0  0  0  0  0  0  0  0  0
    5.4848    3.2947    0.0000 H   0  0  0  0  0  0  0  0  0  0  0  0
    8.4778   -2.6411    0.0000 H   0  0  0  0  0  0  0  0  0  0  0  0
    9.8800   -2.4457    0.0000 H   0  0  0  0  0  0  0  0  0  0  0  0
    7.5346   -1.7270    0.0000 H   0  0  0  0  0  0  0  0  0  0  0  0
    7.9357   -2.4158    0.0000 H   0  0  0  0  0  0  0  0  0  0  0  0
   10.4847   -0.9310    0.0000 H   0  0  0  0  0  0  0  0  0  0  0  0
   10.0835   -0.2423    0.0000 H   0  0  0  0  0  0  0  0  0  0  0  0
    7.9274   -0.2506    0.0000 H   0  0  0  0  0  0  0  0  0  0  0  0
    7.5315   -0.9424    0.0000 H   0  0  0  0  0  0  0  0  0  0  0  0
    3.1760    4.6771    0.0000 H   0  0  0  0  0  0  0  0  0  0  0  0
    2.3291    4.4501    0.0000 H   0  0  0  0  0  0  0  0  0  0  0  0
    2.5560    3.6032    0.0000 H   0  0  0  0  0  0  0  0  0  0  0  0
    4.9081    3.6032    0.0000 H   0  0  0  0  0  0  0  0  0  0  0  0
    5.1350    4.4501    0.0000 H   0  0  0  0  0  0  0  0  0  0  0  0
    4.2881    4.6771    0.0000 H   0  0  0  0  0  0  0  0  0  0  0  0
    7.2598    3.2843    0.0000 H   0  0  0  0  0  0  0  0  0  0  0  0
    9.5774   -4.3638    0.0000 H   0  0  0  0  0  0  0  0  0  0  0  0
   10.4234   -4.1336    0.0000 H   0  0  0  0  0  0  0  0  0  0  0  0
   10.1932   -3.2875    0.0000 H   0  0  0  0  0  0  0  0  0  0  0  0
    8.9918    3.2909    0.0000 H   0  0  0  0  0  0  0  0  0  0  0  0
   10.3979    2.4864    0.0000 H   0  0  0  0  0  0  0  0  0  0  0  0
  1  3  2  0  0  0  0
  1  4  2  0  0  0  0
  1 15  1  0  0  0  0
  1 20  1  0  0  0  0
 28  2  1  6  0  0  0
 27  5  1  6  0  0  0
  5 37  1  0  0  0  0
  6 13  1  0  0  0  0
  6 14  1  0  0  0  0
  6 17  1  0  0  0  0
  7 31  1  0  0  0  0
  7 32  1  0  0  0  0
  7 35  1  0  0  0  0
  8 24  2  0  0  0  0
  8 30  1  0  0  0  0
  9 30  1  0  0  0  0
  9 36  1  0  0  0  0
  9 71  1  0  0  0  0
 10 35  1  0  0  0  0
 10 36  2  0  0  0  0
 11 35  2  0  0  0  0
 11 39  1  0  0  0  0
 12 13  1  0  0  0  0
 12 14  1  0  0  0  0
 12 15  1  6  0  0  0
 12 40  1  0  0  0  0
 13 16  1  1  0  0  0
 13 41  1  0  0  0  0
 14 42  1  0  0  0  0
 14 43  1  0  0  0  0
 15 44  1  0  0  0  0
 15 45  1  0  0  0  0
 16 46  1  0  0  0  0
 16 47  1  0  0  0  0
 16 48  1  0  0  0  0
 17 18  2  0  0  0  0
 17 19  1  0  0  0  0
 18 21  1  0  0  0  0
 18 24  1  0  0  0  0
 19 23  2  0  0  0  0
 19 49  1  0  0  0  0
 20 50  1  0  0  0  0
 20 51  1  0  0  0  0
 20 52  1  0  0  0  0
 21 22  2  0  0  0  0
 21 26  1  0  0  0  0
 22 23  1  0  0  0  0
 22 25  1  0  0  0  0
 23 53  1  0  0  0  0
 24 54  1  0  0  0  0
 25 33  1  0  0  0  0
 25 34  1  0  0  0  0
 25 55  1  0  0  0  0
 26 30  2  0  0  0  0
 26 56  1  0  0  0  0
 27 28  1  0  0  0  0
 27 29  1  0  0  0  0
 27 57  1  0  0  0  0
 28 31  1  0  0  0  0
 28 58  1  0  0  0  0
 29 32  1  0  0  0  0
 29 59  1  0  0  0  0
 29 60  1  0  0  0  0
 31 61  1  0  0  0  0
 31 62  1  0  0  0  0
 32 63  1  0  0  0  0
 32 64  1  0  0  0  0
 33 65  1  0  0  0  0
 33 66  1  0  0  0  0
 33 67  1  0  0  0  0
 34 68  1  0  0  0  0
 34 69  1  0  0  0  0
 34 70  1  0  0  0  0
 36 38  1  0  0  0  0
 37 72  1  0  0  0  0
 37 73  1  0  0  0  0
 37 74  1  0  0  0  0
 38 39  2  0  0  0  0
 38 75  1  0  0  0  0
 39 76  1  0  0  0  0
M  END
> <PUBCHEM_COMPOUND_CID>
156538665

> <PUBCHEM_COMPOUND_CANONICALIZED>
1

> <PUBCHEM_CACTVS_COMPLEXITY>
922

> <PUBCHEM_CACTVS_HBOND_ACCEPTOR>
10

> <PUBCHEM_CACTVS_HBOND_DONOR>
1

> <PUBCHEM_CACTVS_ROTATABLE_BOND>
8

> <PUBCHEM_CACTVS_SUBSKEYS>
AAADcfB7sQBAAAAAAAAAAAAAAABYAAAAAAA8WLEAAAAAAACx/AAAHwQQAAAADTzl2ga/8NfIFAqgAjZnZHDCgCkxArAJ2CA4ZJiIKOLg2dGEJAhqkALIyCcQgMAOiAACQAASAAAQAASAACQAAAAAAAAAAA==

> <PUBCHEM_IUPAC_OPENEYE_NAME>
N-[2-[(3S,4R)-3-fluoro-4-methoxy-1-piperidyl]pyrimidin-4-yl]-5-isopropyl-8-[(2R,3S)-2-methyl-3-(methylsulfonylmethyl)azetidin-1-yl]isoquinolin-3-amine

> <PUBCHEM_IUPAC_CAS_NAME>
N-[2-[(3S,4R)-3-fluoro-4-methoxy-1-piperidinyl]-4-pyrimidinyl]-8-[(2R,3S)-2-methyl-3-(methylsulfonylmethyl)-1-azetidinyl]-5-propan-2-yl-3-isoquinolinamine

> <PUBCHEM_IUPAC_NAME_MARKUP>
<I>N</I>-[2-[(3<I>S</I>,4<I>R</I>)-3-fluoro-4-methoxypiperidin-1-yl]pyrimidin-4-yl]-8-[(2<I>R</I>,3<I>S</I>)-2-methyl-3-(methylsulfonylmethyl)azetidin-1-yl]-5-propan-2-ylisoquinolin-3-amine

> <PUBCHEM_IUPAC_NAME>
N-[2-[(3S,4R)-3-fluoro-4-methoxypiperidin-1-yl]pyrimidin-4-yl]-8-[(2R,3S)-2-methyl-3-(methylsulfonylmethyl)azetidin-1-yl]-5-propan-2-ylisoquinolin-3-amine

> <PUBCHEM_IUPAC_SYSTEMATIC_NAME>
N-[2-[(3S,4R)-3-fluoranyl-4-methoxy-piperidin-1-yl]pyrimidin-4-yl]-8-[(2R,3S)-2-methyl-3-(methylsulfonylmethyl)azetidin-1-yl]-5-propan-2-yl-isoquinolin-3-amine

> <PUBCHEM_IUPAC_TRADITIONAL_NAME>
[2-[(3S,4R)-3-fluoro-4-methoxy-piperidino]pyrimidin-4-yl]-[5-isopropyl-8-[(2R,3S)-3-(mesylmethyl)-2-methyl-azetidin-1-yl]-3-isoquinolyl]amine

> <PUBCHEM_IUPAC_INCHI>
InChI=1S/C28H37FN6O3S/c1-17(2)20-6-7-24(35-14-19(18(35)3)16-39(5,36)37)22-13-31-27(12-21(20)22)32-26-8-10-30-28(33-26)34-11-9-25(38-4)23(29)15-34/h6-8,10,12-13,17-19,23,25H,9,11,14-16H2,1-5H3,(H,30,31,32,33)/t18-,19-,23+,25-/m1/s1

> <PUBCHEM_IUPAC_INCHIKEY>
LIMFPAAAIVQRRD-BCGVJQADSA-N

> <PUBCHEM_XLOGP3_AA>
4.6

> <PUBCHEM_EXACT_MASS>
556.26318840

> <PUBCHEM_MOLECULAR_FORMULA>
C28H37FN6O3S

> <PUBCHEM_MOLECULAR_WEIGHT>
556.7

> <PUBCHEM_OPENEYE_CAN_SMILES>
CC1C(CN1C2=C3C=NC(=CC3=C(C=C2)C(C)C)NC4=NC(=NC=C4)N5CCC(C(C5)F)OC)CS(=O)(=O)C

> <PUBCHEM_OPENEYE_ISO_SMILES>
C[C@@H]1[C@H](CN1C2=C3C=NC(=CC3=C(C=C2)C(C)C)NC4=NC(=NC=C4)N5CC[C@H]([C@H](C5)F)OC)CS(=O)(=O)C

> <PUBCHEM_CACTVS_TPSA>
109

> <PUBCHEM_MONOISOTOPIC_WEIGHT>
556.26318840

> <PUBCHEM_TOTAL_CHARGE>
0

> <PUBCHEM_HEAVY_ATOM_COUNT>
39

> <PUBCHEM_ATOM_DEF_STEREO_COUNT>
4

> <PUBCHEM_ATOM_UDEF_STEREO_COUNT>
0

> <PUBCHEM_BOND_DEF_STEREO_COUNT>
0

> <PUBCHEM_BOND_UDEF_STEREO_COUNT>
0

> <PUBCHEM_ISOTOPIC_ATOM_COUNT>
0

> <PUBCHEM_COMPONENT_COUNT>
1

> <PUBCHEM_CACTVS_TAUTO_COUNT>
-1

> <PUBCHEM_COORDINATE_TYPE>
1
5
255

> <PUBCHEM_BONDANNOTATIONS>
10  35  8
10  36  8
11  35  8
11  39  8
12  15  6
13  16  5
17  18  8
17  19  8
18  21  8
18  24  8
19  23  8
28  2  6
21  22  8
21  26  8
22  23  8
26  30  8
36  38  8
38  39  8
27  5  6
8  24  8
8  30  8

$$$$
75593308
  -OEChem-11282412102D

 42 45  0     0  0  0  0  0  0999 V2000
    5.0653   -1.3610    0.0000 O   0  0  0  0  0  0  0  0  0  0  0  0
    9.4756   -1.6657    0.0000 N   0  0  0  0  0  0  0  0  0  0  0  0
    5.9313    0.1390    0.0000 N   0  0  0  0  0  0  0  0  0  0  0  0
    7.6634   -1.8610    0.0000 N   0  0  0  0  0  0  0  0  0  0  0  0
    2.6166    0.4754    0.0000 N   0  0  0  0  0  0  0  0  0  0  0  0
    3.2857   -0.2677    0.0000 N   0  0  0  0  0  0  0  0  0  0  0  0
    8.5294   -0.3610    0.0000 C   0  0  0  0  0  0  0  0  0  0  0  0
   10.0592   -0.8610    0.0000 C   0  0  0  0  0  0  0  0  0  0  0  0
    8.5294   -1.3610    0.0000 C   0  0  0  0  0  0  0  0  0  0  0  0
    9.4756   -0.0562    0.0000 C   0  0  0  0  0  0  0  0  0  0  0  0
    7.6634    0.1390    0.0000 C   0  0  0  0  0  0  0  0  0  0  0  0
    6.7974   -0.3610    0.0000 C   0  0  0  0  0  0  0  0  0  0  0  0
   11.0592   -0.8610    0.0000 C   0  0  0  0  0  0  0  0  0  0  0  0
    4.0948    1.1336    0.0000 C   0  0  0  0  0  0  0  0  0  0  0  0
    4.1993    0.1390    0.0000 C   0  0  0  0  0  0  0  0  0  0  0  0
    3.1166    1.3415    0.0000 C   0  0  0  0  0  0  0  0  0  0  0  0
    6.7974   -1.3610    0.0000 C   0  0  0  0  0  0  0  0  0  0  0  0
    5.0653   -0.3610    0.0000 C   0  0  0  0  0  0  0  0  0  0  0  0
   11.5592    0.0051    0.0000 C   0  0  0  0  0  0  0  0  0  0  0  0
   11.5592   -1.7270    0.0000 C   0  0  0  0  0  0  0  0  0  0  0  0
    4.8379    1.8027    0.0000 C   0  0  0  0  0  0  0  0  0  0  0  0
    2.7099    2.2550    0.0000 C   0  0  0  0  0  0  0  0  0  0  0  0
   12.5592    0.0051    0.0000 C   0  0  0  0  0  0  0  0  0  0  0  0
   12.5592   -1.7270    0.0000 C   0  0  0  0  0  0  0  0  0  0  0  0
   13.0592   -0.8610    0.0000 C   0  0  0  0  0  0  0  0  0  0  0  0
    9.6682    0.5331    0.0000 H   0  0  0  0  0  0  0  0  0  0  0  0
    9.6682   -2.2550    0.0000 H   0  0  0  0  0  0  0  0  0  0  0  0
    7.6634    0.7590    0.0000 H   0  0  0  0  0  0  0  0  0  0  0  0
    5.9313    0.7590    0.0000 H   0  0  0  0  0  0  0  0  0  0  0  0
    6.2604   -1.6710    0.0000 H   0  0  0  0  0  0  0  0  0  0  0  0
    2.0000    0.4106    0.0000 H   0  0  0  0  0  0  0  0  0  0  0  0
    5.2528    1.3419    0.0000 H   0  0  0  0  0  0  0  0  0  0  0  0
    5.2986    2.2176    0.0000 H   0  0  0  0  0  0  0  0  0  0  0  0
    4.4230    2.2634    0.0000 H   0  0  0  0  0  0  0  0  0  0  0  0
   11.2492    0.5420    0.0000 H   0  0  0  0  0  0  0  0  0  0  0  0
   11.2492   -2.2639    0.0000 H   0  0  0  0  0  0  0  0  0  0  0  0
    3.2763    2.5072    0.0000 H   0  0  0  0  0  0  0  0  0  0  0  0
    2.4577    2.8214    0.0000 H   0  0  0  0  0  0  0  0  0  0  0  0
    2.1435    2.0028    0.0000 H   0  0  0  0  0  0  0  0  0  0  0  0
   12.8692    0.5420    0.0000 H   0  0  0  0  0  0  0  0  0  0  0  0
   12.8692   -2.2639    0.0000 H   0  0  0  0  0  0  0  0  0  0  0  0
   13.6792   -0.8610    0.0000 H   0  0  0  0  0  0  0  0  0  0  0  0
  1 18  2  0  0  0  0
  2  8  1  0  0  0  0
  2  9  1  0  0  0  0
  2 27  1  0  0  0  0
  3 12  1  0  0  0  0
  3 18  1  0  0  0  0
  3 29  1  0  0  0  0
  4  9  2  0  0  0  0
  4 17  1  0  0  0  0
  5  6  1  0  0  0  0
  5 16  1  0  0  0  0
  5 31  1  0  0  0  0
  6 15  2  0  0  0  0
  7  9  1  0  0  0  0
  7 10  1  0  0  0  0
  7 11  2  0  0  0  0
  8 10  2  0  0  0  0
  8 13  1  0  0  0  0
 10 26  1  0  0  0  0
 11 12  1  0  0  0  0
 11 28  1  0  0  0  0
 12 17  2  0  0  0  0
 13 19  2  0  0  0  0
 13 20  1  0  0  0  0
 14 15  1  0  0  0  0
 14 16  2  0  0  0  0
 14 21  1  0  0  0  0
 15 18  1  0  0  0  0
 16 22  1  0  0  0  0
 17 30  1  0  0  0  0
 19 23  1  0  0  0  0
 19 35  1  0  0  0  0
 20 24  2  0  0  0  0
 20 36  1  0  0  0  0
 21 32  1  0  0  0  0
 21 33  1  0  0  0  0
 21 34  1  0  0  0  0
 22 37  1  0  0  0  0
 22 38  1  0  0  0  0
 22 39  1  0  0  0  0
 23 25  2  0  0  0  0
 23 40  1  0  0  0  0
 24 25  1  0  0  0  0
 24 41  1  0  0  0  0
 25 42  1  0  0  0  0
M  END
> <PUBCHEM_COMPOUND_CID>
75593308

> <PUBCHEM_COMPOUND_CANONICALIZED>
1

> <PUBCHEM_CACTVS_COMPLEXITY>
480

> <PUBCHEM_CACTVS_HBOND_ACCEPTOR>
3

> <PUBCHEM_CACTVS_HBOND_DONOR>
3

> <PUBCHEM_CACTVS_ROTATABLE_BOND>
3

> <PUBCHEM_CACTVS_SUBSKEYS>
AAADceB7oAAAAAAAAAAAAAAAAAAAAWLAAAA8QAAAAAAAAFgB/gAAHgAYAAAADAjBnwQ/8N7rkACqAzd3dACShCm3EqAZ+SG4dNiIaPLA3dGUpQhonALIySccgMAOAAAAAAAAAAAAAAAAAAAAAAAAAAAAAA==

> <PUBCHEM_IUPAC_OPENEYE_NAME>
4,5-dimethyl-N-(2-phenyl-1H-pyrrolo[2,3-b]pyridin-5-yl)-1H-pyrazole-3-carboxamide

> <PUBCHEM_IUPAC_CAS_NAME>
4,5-dimethyl-N-(2-phenyl-1H-pyrrolo[2,3-b]pyridin-5-yl)-1H-pyrazole-3-carboxamide

> <PUBCHEM_IUPAC_NAME_MARKUP>
4,5-dimethyl-<I>N</I>-(2-phenyl-1<I>H</I>-pyrrolo[2,3-b]pyridin-5-yl)-1<I>H</I>-pyrazole-3-carboxamide

> <PUBCHEM_IUPAC_NAME>
4,5-dimethyl-N-(2-phenyl-1H-pyrrolo[2,3-b]pyridin-5-yl)-1H-pyrazole-3-carboxamide

> <PUBCHEM_IUPAC_SYSTEMATIC_NAME>
4,5-dimethyl-N-(2-phenyl-1H-pyrrolo[2,3-b]pyridin-5-yl)-1H-pyrazole-3-carboxamide

> <PUBCHEM_IUPAC_TRADITIONAL_NAME>
4,5-dimethyl-N-(2-phenyl-1H-pyrrolo[2,3-b]pyridin-5-yl)-1H-pyrazole-3-carboxamide

> <PUBCHEM_IUPAC_INCHI>
InChI=1S/C19H17N5O/c1-11-12(2)23-24-17(11)19(25)21-15-8-14-9-16(22-18(14)20-10-15)13-6-4-3-5-7-13/h3-10H,1-2H3,(H,20,22)(H,21,25)(H,23,24)

> <PUBCHEM_IUPAC_INCHIKEY>
NVSHVYGIYPBTEZ-UHFFFAOYSA-N

> <PUBCHEM_XLOGP3_AA>
3.2

> <PUBCHEM_EXACT_MASS>
331.14331018

> <PUBCHEM_MOLECULAR_FORMULA>
C19H17N5O

> <PUBCHEM_MOLECULAR_WEIGHT>
331.4

> <PUBCHEM_OPENEYE_CAN_SMILES>
CC1=C(NN=C1C(=O)NC2=CN=C3C(=C2)C=C(N3)C4=CC=CC=C4)C

> <PUBCHEM_OPENEYE_ISO_SMILES>
CC1=C(NN=C1C(=O)NC2=CN=C3C(=C2)C=C(N3)C4=CC=CC=C4)C

> <PUBCHEM_CACTVS_TPSA>
86.5

> <PUBCHEM_MONOISOTOPIC_WEIGHT>
331.14331018

> <PUBCHEM_TOTAL_CHARGE>
0

> <PUBCHEM_HEAVY_ATOM_COUNT>
25

> <PUBCHEM_ATOM_DEF_STEREO_COUNT>
0

> <PUBCHEM_ATOM_UDEF_STEREO_COUNT>
0

> <PUBCHEM_BOND_DEF_STEREO_COUNT>
0

> <PUBCHEM_BOND_UDEF_STEREO_COUNT>
0

> <PUBCHEM_ISOTOPIC_ATOM_COUNT>
0

> <PUBCHEM_COMPONENT_COUNT>
1

> <PUBCHEM_CACTVS_TAUTO_COUNT>
-1

> <PUBCHEM_COORDINATE_TYPE>
1
5
255

> <PUBCHEM_BONDANNOTATIONS>
11  12  8
12  17  8
13  19  8
13  20  8
14  15  8
14  16  8
19  23  8
2  8  8
2  9  8
20  24  8
23  25  8
24  25  8
4  17  8
4  9  8
5  16  8
5  6  8
6  15  8
7  10  8
7  11  8
7  9  8
8  10  8

$$$$
24864821
  -OEChem-11282412102D

 46 50  0     0  0  0  0  0  0999 V2000
    6.3465   -0.3662    0.0000 O   0  0  0  0  0  0  0  0  0  0  0  0
    2.8660   -3.4008    0.0000 O   0  0  0  0  0  0  0  0  0  0  0  0
    7.9930    1.7366    0.0000 N   0  0  0  0  0  0  0  0  0  0  0  0
    8.9739    1.5417    0.0000 N   0  0  0  0  0  0  0  0  0  0  0  0
    6.3837    1.7180    0.0000 N   0  0  0  0  0  0  0  0  0  0  0  0
    6.6774    2.6677    0.0000 N   0  0  0  0  0  0  0  0  0  0  0  0
    6.3580   -3.4354    0.0000 N   0  0  0  0  0  0  0  0  0  0  0  0
    7.1951    1.1437    0.0000 C   0  0  0  0  0  0  0  0  0  0  0  0
    7.2067    0.1438    0.0000 C   0  0  0  0  0  0  0  0  0  0  0  0
    5.4641   -1.9008    0.0000 C   0  0  0  0  0  0  0  0  0  0  0  0
    7.6714    2.6835    0.0000 C   0  0  0  0  0  0  0  0  0  0  0  0
    6.3580   -1.3661    0.0000 C   0  0  0  0  0  0  0  0  0  0  0  0
    9.6331    2.2937    0.0000 C   0  0  0  0  0  0  0  0  0  0  0  0
    5.4641   -2.9008    0.0000 C   0  0  0  0  0  0  0  0  0  0  0  0
    8.3306    3.4354    0.0000 C   0  0  0  0  0  0  0  0  0  0  0  0
   10.6139    2.0988    0.0000 C   0  0  0  0  0  0  0  0  0  0  0  0
    9.3114    3.2406    0.0000 C   0  0  0  0  0  0  0  0  0  0  0  0
    4.5981   -1.4008    0.0000 C   0  0  0  0  0  0  0  0  0  0  0  0
    4.5981   -3.4008    0.0000 C   0  0  0  0  0  0  0  0  0  0  0  0
    7.2641   -1.8800    0.0000 C   0  0  0  0  0  0  0  0  0  0  0  0
    3.7320   -2.9008    0.0000 C   0  0  0  0  0  0  0  0  0  0  0  0
    3.7320   -1.9008    0.0000 C   0  0  0  0  0  0  0  0  0  0  0  0
    7.2641   -2.9216    0.0000 C   0  0  0  0  0  0  0  0  0  0  0  0
   11.2731    2.8508    0.0000 C   0  0  0  0  0  0  0  0  0  0  0  0
   10.9355    1.1519    0.0000 C   0  0  0  0  0  0  0  0  0  0  0  0
   12.2539    2.6559    0.0000 C   0  0  0  0  0  0  0  0  0  0  0  0
   11.9163    0.9570    0.0000 C   0  0  0  0  0  0  0  0  0  0  0  0
   12.5755    1.7090    0.0000 C   0  0  0  0  0  0  0  0  0  0  0  0
    2.0000   -2.9008    0.0000 C   0  0  0  0  0  0  0  0  0  0  0  0
    7.4254   -0.4363    0.0000 H   0  0  0  0  0  0  0  0  0  0  0  0
    7.8160    0.2585    0.0000 H   0  0  0  0  0  0  0  0  0  0  0  0
    8.1312    4.0225    0.0000 H   0  0  0  0  0  0  0  0  0  0  0  0
    9.7201    3.7068    0.0000 H   0  0  0  0  0  0  0  0  0  0  0  0
    4.5981   -0.7808    0.0000 H   0  0  0  0  0  0  0  0  0  0  0  0
    4.5981   -4.0208    0.0000 H   0  0  0  0  0  0  0  0  0  0  0  0
    7.7998   -1.5679    0.0000 H   0  0  0  0  0  0  0  0  0  0  0  0
    3.1951   -1.5908    0.0000 H   0  0  0  0  0  0  0  0  0  0  0  0
    7.7998   -3.2337    0.0000 H   0  0  0  0  0  0  0  0  0  0  0  0
   11.0737    3.4378    0.0000 H   0  0  0  0  0  0  0  0  0  0  0  0
   10.5268    0.6857    0.0000 H   0  0  0  0  0  0  0  0  0  0  0  0
   12.6626    3.1221    0.0000 H   0  0  0  0  0  0  0  0  0  0  0  0
   12.1157    0.3700    0.0000 H   0  0  0  0  0  0  0  0  0  0  0  0
   13.1836    1.5882    0.0000 H   0  0  0  0  0  0  0  0  0  0  0  0
    2.3100   -2.3638    0.0000 H   0  0  0  0  0  0  0  0  0  0  0  0
    1.4631   -2.5908    0.0000 H   0  0  0  0  0  0  0  0  0  0  0  0
    1.6900   -3.4377    0.0000 H   0  0  0  0  0  0  0  0  0  0  0  0
  1  9  1  0  0  0  0
  1 12  1  0  0  0  0
  2 21  1  0  0  0  0
  2 29  1  0  0  0  0
  3  4  1  0  0  0  0
  3  8  1  0  0  0  0
  3 11  1  0  0  0  0
  4 13  2  0  0  0  0
  5  6  1  0  0  0  0
  5  8  2  0  0  0  0
  6 11  2  0  0  0  0
  7 14  2  0  0  0  0
  7 23  1  0  0  0  0
  8  9  1  0  0  0  0
  9 30  1  0  0  0  0
  9 31  1  0  0  0  0
 10 12  2  0  0  0  0
 10 14  1  0  0  0  0
 10 18  1  0  0  0  0
 11 15  1  0  0  0  0
 12 20  1  0  0  0  0
 13 16  1  0  0  0  0
 13 17  1  0  0  0  0
 14 19  1  0  0  0  0
 15 17  2  0  0  0  0
 15 32  1  0  0  0  0
 16 24  2  0  0  0  0
 16 25  1  0  0  0  0
 17 33  1  0  0  0  0
 18 22  2  0  0  0  0
 18 34  1  0  0  0  0
 19 21  2  0  0  0  0
 19 35  1  0  0  0  0
 20 23  2  0  0  0  0
 20 36  1  0  0  0  0
 21 22  1  0  0  0  0
 22 37  1  0  0  0  0
 23 38  1  0  0  0  0
 24 26  1  0  0  0  0
 24 39  1  0  0  0  0
 25 27  2  0  0  0  0
 25 40  1  0  0  0  0
 26 28  2  0  0  0  0
 26 41  1  0  0  0  0
 27 28  1  0  0  0  0
 27 42  1  0  0  0  0
 28 43  1  0  0  0  0
 29 44  1  0  0  0  0
 29 45  1  0  0  0  0
 29 46  1  0  0  0  0
M  END
> <PUBCHEM_COMPOUND_CID>
24864821

> <PUBCHEM_COMPOUND_CANONICALIZED>
1

> <PUBCHEM_CACTVS_COMPLEXITY>
531

> <PUBCHEM_CACTVS_HBOND_ACCEPTOR>
6

> <PUBCHEM_CACTVS_HBOND_DONOR>
0

> <PUBCHEM_CACTVS_ROTATABLE_BOND>
5

> <PUBCHEM_CACTVS_SUBSKEYS>
AAADceB7sAAAAAAAAAAAAAAAAAAAAWAAAAA8eIEAAAAAAFix/gAAHgAIAAAADAzhnwY/9v4IFACiAzZnZASSjCsxIqAd2CA+bJiOLuLEuZuHuCjmyBvY6CeQ8K8OIAAAAgACAABAAAAEAAQAAAAAAAAAAA==

> <PUBCHEM_IUPAC_OPENEYE_NAME>
7-methoxy-4-[(6-phenyl-[1,2,4]triazolo[4,3-b]pyridazin-3-yl)methoxy]quinoline

> <PUBCHEM_IUPAC_CAS_NAME>
7-methoxy-4-[(6-phenyl-[1,2,4]triazolo[4,3-b]pyridazin-3-yl)methoxy]quinoline

> <PUBCHEM_IUPAC_NAME_MARKUP>
7-methoxy-4-[(6-phenyl-[1,2,4]triazolo[4,3-b]pyridazin-3-yl)methoxy]quinoline

> <PUBCHEM_IUPAC_NAME>
7-methoxy-4-[(6-phenyl-[1,2,4]triazolo[4,3-b]pyridazin-3-yl)methoxy]quinoline

> <PUBCHEM_IUPAC_SYSTEMATIC_NAME>
7-methoxy-4-[(6-phenyl-[1,2,4]triazolo[4,3-b]pyridazin-3-yl)methoxy]quinoline

> <PUBCHEM_IUPAC_TRADITIONAL_NAME>
7-methoxy-4-[(6-phenyl-[1,2,4]triazolo[4,3-b]pyridazin-3-yl)methoxy]quinoline

> <PUBCHEM_IUPAC_INCHI>
InChI=1S/C22H17N5O2/c1-28-16-7-8-17-19(13-16)23-12-11-20(17)29-14-22-25-24-21-10-9-18(26-27(21)22)15-5-3-2-4-6-15/h2-13H,14H2,1H3

> <PUBCHEM_IUPAC_INCHIKEY>
HEAIZQNMNCHNFD-UHFFFAOYSA-N

> <PUBCHEM_XLOGP3_AA>
3.1

> <PUBCHEM_EXACT_MASS>
383.13822480

> <PUBCHEM_MOLECULAR_FORMULA>
C22H17N5O2

> <PUBCHEM_MOLECULAR_WEIGHT>
383.4

> <PUBCHEM_OPENEYE_CAN_SMILES>
COC1=CC2=NC=CC(=C2C=C1)OCC3=NN=C4N3N=C(C=C4)C5=CC=CC=C5

> <PUBCHEM_OPENEYE_ISO_SMILES>
COC1=CC2=NC=CC(=C2C=C1)OCC3=NN=C4N3N=C(C=C4)C5=CC=CC=C5

> <PUBCHEM_CACTVS_TPSA>
74.4

> <PUBCHEM_MONOISOTOPIC_WEIGHT>
383.13822480

> <PUBCHEM_TOTAL_CHARGE>
0

> <PUBCHEM_HEAVY_ATOM_COUNT>
29

> <PUBCHEM_ATOM_DEF_STEREO_COUNT>
0

> <PUBCHEM_ATOM_UDEF_STEREO_COUNT>
0

> <PUBCHEM_BOND_DEF_STEREO_COUNT>
0

> <PUBCHEM_BOND_UDEF_STEREO_COUNT>
0

> <PUBCHEM_ISOTOPIC_ATOM_COUNT>
0

> <PUBCHEM_COMPONENT_COUNT>
1

> <PUBCHEM_CACTVS_TAUTO_COUNT>
-1

> <PUBCHEM_COORDINATE_TYPE>
1
5
255

> <PUBCHEM_BONDANNOTATIONS>
10  12  8
10  14  8
10  18  8
11  15  8
12  20  8
13  17  8
14  19  8
15  17  8
16  24  8
16  25  8
18  22  8
19  21  8
20  23  8
21  22  8
24  26  8
25  27  8
26  28  8
27  28  8
3  11  8
3  4  8
3  8  8
4  13  8
5  6  8
5  8  8
6  11  8
7  14  8
7  23  8

$$$$
11640390
  -OEChem-11282412102D

 55 60  0     0  0  0  0  0  0999 V2000
    3.2939   -3.2726    0.0000 O   0  0  0  0  0  0  0  0  0  0  0  0
    3.4059    0.7273    0.0000 N   0  0  0  0  0  0  0  0  0  0  0  0
    4.8785    0.0778    0.0000 N   0  0  0  0  0  0  0  0  0  0  0  0
    2.7846    2.6284    0.0000 N   0  0  0  0  0  0  0  0  0  0  0  0
    4.4309    3.1665    0.0000 N   0  0  0  0  0  0  0  0  0  0  0  0
    8.4735    1.0319    0.0000 N   0  0  0  0  0  0  0  0  0  0  0  0
    2.9323   -2.3403    0.0000 C   0  0  0  0  0  0  0  0  0  0  0  0
    3.5031   -1.0463    0.0000 C   0  0  0  0  0  0  0  0  0  0  0  0
    2.5707   -1.4079    0.0000 C   0  0  0  0  0  0  0  0  0  0  0  0
    3.8647   -1.9787    0.0000 C   0  0  0  0  0  0  0  0  0  0  0  0
    3.9066   -0.1314    0.0000 C   0  0  0  0  0  0  0  0  0  0  0  0
    2.0000   -2.7019    0.0000 C   0  0  0  0  0  0  0  0  0  0  0  0
    4.0737    1.4716    0.0000 C   0  0  0  0  0  0  0  0  0  0  0  0
    4.9815    1.0665    0.0000 C   0  0  0  0  0  0  0  0  0  0  0  0
    2.4274    0.9336    0.0000 C   0  0  0  0  0  0  0  0  0  0  0  0
    3.7631    2.4222    0.0000 C   0  0  0  0  0  0  0  0  0  0  0  0
    5.8475    1.5665    0.0000 C   0  0  0  0  0  0  0  0  0  0  0  0
    2.1167    1.8841    0.0000 C   0  0  0  0  0  0  0  0  0  0  0  0
    6.7136    1.0665    0.0000 C   0  0  0  0  0  0  0  0  0  0  0  0
    5.8475    2.5665    0.0000 C   0  0  0  0  0  0  0  0  0  0  0  0
    7.5796    1.5665    0.0000 C   0  0  0  0  0  0  0  0  0  0  0  0
    6.7136    3.0665    0.0000 C   0  0  0  0  0  0  0  0  0  0  0  0
    7.5796    2.5665    0.0000 C   0  0  0  0  0  0  0  0  0  0  0  0
    8.4735    3.1012    0.0000 C   0  0  0  0  0  0  0  0  0  0  0  0
    9.3796    1.5457    0.0000 C   0  0  0  0  0  0  0  0  0  0  0  0
    9.3796    2.5873    0.0000 C   0  0  0  0  0  0  0  0  0  0  0  0
   10.2437    1.0424    0.0000 C   0  0  0  0  0  0  0  0  0  0  0  0
   11.1116    1.5390    0.0000 C   0  0  0  0  0  0  0  0  0  0  0  0
   10.2398    0.0424    0.0000 C   0  0  0  0  0  0  0  0  0  0  0  0
   11.9757    1.0357    0.0000 C   0  0  0  0  0  0  0  0  0  0  0  0
   11.1039   -0.4609    0.0000 C   0  0  0  0  0  0  0  0  0  0  0  0
   11.9719    0.0357    0.0000 C   0  0  0  0  0  0  0  0  0  0  0  0
    4.1229   -1.0604    0.0000 H   0  0  0  0  0  0  0  0  0  0  0  0
    2.3466   -0.8299    0.0000 H   0  0  0  0  0  0  0  0  0  0  0  0
    1.9927   -1.6321    0.0000 H   0  0  0  0  0  0  0  0  0  0  0  0
    4.0889   -2.5567    0.0000 H   0  0  0  0  0  0  0  0  0  0  0  0
    4.4427   -1.7545    0.0000 H   0  0  0  0  0  0  0  0  0  0  0  0
    1.7758   -2.1238    0.0000 H   0  0  0  0  0  0  0  0  0  0  0  0
    1.4220   -2.9261    0.0000 H   0  0  0  0  0  0  0  0  0  0  0  0
    2.2242   -3.2799    0.0000 H   0  0  0  0  0  0  0  0  0  0  0  0
    2.9054   -3.7558    0.0000 H   0  0  0  0  0  0  0  0  0  0  0  0
    2.0133    0.4721    0.0000 H   0  0  0  0  0  0  0  0  0  0  0  0
    1.5100    2.0119    0.0000 H   0  0  0  0  0  0  0  0  0  0  0  0
    6.7136    0.4465    0.0000 H   0  0  0  0  0  0  0  0  0  0  0  0
    5.3106    2.8765    0.0000 H   0  0  0  0  0  0  0  0  0  0  0  0
    4.2383    3.7558    0.0000 H   0  0  0  0  0  0  0  0  0  0  0  0
    5.0376    3.0386    0.0000 H   0  0  0  0  0  0  0  0  0  0  0  0
    6.7136    3.6865    0.0000 H   0  0  0  0  0  0  0  0  0  0  0  0
    8.4664    3.7212    0.0000 H   0  0  0  0  0  0  0  0  0  0  0  0
    9.9153    2.8994    0.0000 H   0  0  0  0  0  0  0  0  0  0  0  0
   11.1140    2.1590    0.0000 H   0  0  0  0  0  0  0  0  0  0  0  0
    9.7017   -0.2655    0.0000 H   0  0  0  0  0  0  0  0  0  0  0  0
   12.5139    1.3436    0.0000 H   0  0  0  0  0  0  0  0  0  0  0  0
   11.1015   -1.0809    0.0000 H   0  0  0  0  0  0  0  0  0  0  0  0
   12.5076   -0.2764    0.0000 H   0  0  0  0  0  0  0  0  0  0  0  0
  1  7  1  0  0  0  0
  1 41  1  0  0  0  0
  2 11  1  0  0  0  0
  2 13  1  0  0  0  0
  2 15  1  0  0  0  0
  3 11  2  0  0  0  0
  3 14  1  0  0  0  0
  4 16  2  0  0  0  0
  4 18  1  0  0  0  0
  5 16  1  0  0  0  0
  5 46  1  0  0  0  0
  5 47  1  0  0  0  0
  6 21  1  0  0  0  0
  6 25  2  0  0  0  0
  7  9  1  0  0  0  0
  7 10  1  0  0  0  0
  7 12  1  0  0  0  0
  8  9  1  0  0  0  0
  8 10  1  0  0  0  0
  8 11  1  0  0  0  0
  8 33  1  0  0  0  0
  9 34  1  0  0  0  0
  9 35  1  0  0  0  0
 10 36  1  0  0  0  0
 10 37  1  0  0  0  0
 12 38  1  0  0  0  0
 12 39  1  0  0  0  0
 12 40  1  0  0  0  0
 13 14  2  0  0  0  0
 13 16  1  0  0  0  0
 14 17  1  0  0  0  0
 15 18  2  0  0  0  0
 15 42  1  0  0  0  0
 17 19  2  0  0  0  0
 17 20  1  0  0  0  0
 18 43  1  0  0  0  0
 19 21  1  0  0  0  0
 19 44  1  0  0  0  0
 20 22  2  0  0  0  0
 20 45  1  0  0  0  0
 21 23  2  0  0  0  0
 22 23  1  0  0  0  0
 22 48  1  0  0  0  0
 23 24  1  0  0  0  0
 24 26  2  0  0  0  0
 24 49  1  0  0  0  0
 25 26  1  0  0  0  0
 25 27  1  0  0  0  0
 26 50  1  0  0  0  0
 27 28  2  0  0  0  0
 27 29  1  0  0  0  0
 28 30  1  0  0  0  0
 28 51  1  0  0  0  0
 29 31  2  0  0  0  0
 29 52  1  0  0  0  0
 30 32  2  0  0  0  0
 30 53  1  0  0  0  0
 31 32  1  0  0  0  0
 31 54  1  0  0  0  0
 32 55  1  0  0  0  0
M  END
> <PUBCHEM_COMPOUND_CID>
11640390

> <PUBCHEM_COMPOUND_CANONICALIZED>
1

> <PUBCHEM_CACTVS_COMPLEXITY>
663

> <PUBCHEM_CACTVS_HBOND_ACCEPTOR>
5

> <PUBCHEM_CACTVS_HBOND_DONOR>
2

> <PUBCHEM_CACTVS_ROTATABLE_BOND>
3

> <PUBCHEM_CACTVS_SUBSKEYS>
AAADceB7oAAAAAAAAAAAAAAAAABgAWAAAAA8eIEAAAAAAFix/gAAHgAQCAAADUzBnwQ/8PdMGgCgAzZnZACCgC0xEqAJ2CA4dJiIaOLA2dGUZAhsgALIyCcwgMAOQAAAQAACAACAAACAAAQAAAAAAAAAAA==

> <PUBCHEM_IUPAC_OPENEYE_NAME>
3-[8-amino-1-(2-phenyl-7-quinolyl)imidazo[1,5-a]pyrazin-3-yl]-1-methyl-cyclobutanol

> <PUBCHEM_IUPAC_CAS_NAME>
3-[8-amino-1-(2-phenyl-7-quinolinyl)-3-imidazo[1,5-a]pyrazinyl]-1-methyl-1-cyclobutanol

> <PUBCHEM_IUPAC_NAME_MARKUP>
3-[8-amino-1-(2-phenylquinolin-7-yl)imidazo[1,5-a]pyrazin-3-yl]-1-methylcyclobutan-1-ol

> <PUBCHEM_IUPAC_NAME>
3-[8-amino-1-(2-phenylquinolin-7-yl)imidazo[1,5-a]pyrazin-3-yl]-1-methylcyclobutan-1-ol

> <PUBCHEM_IUPAC_SYSTEMATIC_NAME>
3-[8-azanyl-1-(2-phenylquinolin-7-yl)imidazo[1,5-a]pyrazin-3-yl]-1-methyl-cyclobutan-1-ol

> <PUBCHEM_IUPAC_TRADITIONAL_NAME>
3-[8-amino-1-(2-phenyl-7-quinolyl)imidazo[1,5-a]pyrazin-3-yl]-1-methyl-cyclobutanol

> <PUBCHEM_IUPAC_INCHI>
InChI=1S/C26H23N5O/c1-26(32)14-19(15-26)25-30-22(23-24(27)28-11-12-31(23)25)18-8-7-17-9-10-20(29-21(17)13-18)16-5-3-2-4-6-16/h2-13,19,32H,14-15H2,1H3,(H2,27,28)

> <PUBCHEM_IUPAC_INCHIKEY>
PKCDDUHJAFVJJB-UHFFFAOYSA-N

> <PUBCHEM_XLOGP3_AA>
4.2

> <PUBCHEM_EXACT_MASS>
421.19026037

> <PUBCHEM_MOLECULAR_FORMULA>
C26H23N5O

> <PUBCHEM_MOLECULAR_WEIGHT>
421.5

> <PUBCHEM_OPENEYE_CAN_SMILES>
CC1(CC(C1)C2=NC(=C3N2C=CN=C3N)C4=CC5=C(C=C4)C=CC(=N5)C6=CC=CC=C6)O

> <PUBCHEM_OPENEYE_ISO_SMILES>
CC1(CC(C1)C2=NC(=C3N2C=CN=C3N)C4=CC5=C(C=C4)C=CC(=N5)C6=CC=CC=C6)O

> <PUBCHEM_CACTVS_TPSA>
89.3

> <PUBCHEM_MONOISOTOPIC_WEIGHT>
421.19026037

> <PUBCHEM_TOTAL_CHARGE>
0

> <PUBCHEM_HEAVY_ATOM_COUNT>
32

> <PUBCHEM_ATOM_DEF_STEREO_COUNT>
0

> <PUBCHEM_ATOM_UDEF_STEREO_COUNT>
0

> <PUBCHEM_BOND_DEF_STEREO_COUNT>
0

> <PUBCHEM_BOND_UDEF_STEREO_COUNT>
0

> <PUBCHEM_ISOTOPIC_ATOM_COUNT>
0

> <PUBCHEM_COMPONENT_COUNT>
1

> <PUBCHEM_CACTVS_TAUTO_COUNT>
-1

> <PUBCHEM_COORDINATE_TYPE>
1
5
255

> <PUBCHEM_BONDANNOTATIONS>
13  14  8
13  16  8
15  18  8
17  19  8
17  20  8
19  21  8
2  11  8
2  13  8
2  15  8
20  22  8
21  23  8
22  23  8
23  24  8
24  26  8
25  26  8
27  28  8
27  29  8
28  30  8
29  31  8
3  11  8
3  14  8
30  32  8
31  32  8
4  16  8
4  18  8
6  21  8
6  25  8

$$$$
16038120
  -OEChem-11282412102D

 82 86  0     0  0  0  0  0  0999 V2000
    8.0622    6.0000    0.0000 Cl  0  0  0  0  0  0  0  0  0  0  0  0
    9.7942    3.0000    0.0000 S   0  0  0  0  0  0  0  0  0  0  0  0
    2.8660    3.0000    0.0000 O   0  0  0  0  0  0  0  0  0  0  0  0
   10.7942    3.0000    0.0000 O   0  0  0  0  0  0  0  0  0  0  0  0
    8.7942    3.0000    0.0000 O   0  0  0  0  0  0  0  0  0  0  0  0
    4.5981   -3.0000    0.0000 N   0  0  0  0  0  0  0  0  0  0  0  0
    4.5981   -0.0000    0.0000 N   0  0  0  0  0  0  0  0  0  0  0  0
    4.5981   -5.0000    0.0000 N   0  0  0  0  0  0  0  0  0  0  0  0
    4.5981    4.0000    0.0000 N   0  0  0  0  0  0  0  0  0  0  0  0
    6.3301    4.0000    0.0000 N   0  0  0  0  0  0  0  0  0  0  0  0
    5.4641    5.5000    0.0000 N   0  0  0  0  0  0  0  0  0  0  0  0
    8.0622    4.0000    0.0000 N   0  0  0  0  0  0  0  0  0  0  0  0
    4.5981   -2.0000    0.0000 C   0  0  0  0  0  0  0  0  0  0  0  0
    3.7320   -1.5000    0.0000 C   0  0  0  0  0  0  0  0  0  0  0  0
    5.4641   -1.5000    0.0000 C   0  0  0  0  0  0  0  0  0  0  0  0
    3.7320   -0.5000    0.0000 C   0  0  0  0  0  0  0  0  0  0  0  0
    5.4641   -0.5000    0.0000 C   0  0  0  0  0  0  0  0  0  0  0  0
    3.7320   -3.5000    0.0000 C   0  0  0  0  0  0  0  0  0  0  0  0
    5.4641   -3.5000    0.0000 C   0  0  0  0  0  0  0  0  0  0  0  0
    3.7320   -4.5000    0.0000 C   0  0  0  0  0  0  0  0  0  0  0  0
    5.4641   -4.5000    0.0000 C   0  0  0  0  0  0  0  0  0  0  0  0
    4.5981    1.0000    0.0000 C   0  0  0  0  0  0  0  0  0  0  0  0
    4.5981   -6.0000    0.0000 C   0  0  0  0  0  0  0  0  0  0  0  0
    3.7320    1.5000    0.0000 C   0  0  0  0  0  0  0  0  0  0  0  0
    5.4641    1.5000    0.0000 C   0  0  0  0  0  0  0  0  0  0  0  0
    3.7320    2.5000    0.0000 C   0  0  0  0  0  0  0  0  0  0  0  0
    5.4641    2.5000    0.0000 C   0  0  0  0  0  0  0  0  0  0  0  0
    4.5981    3.0000    0.0000 C   0  0  0  0  0  0  0  0  0  0  0  0
    5.4641    4.5000    0.0000 C   0  0  0  0  0  0  0  0  0  0  0  0
    2.0000    2.5000    0.0000 C   0  0  0  0  0  0  0  0  0  0  0  0
    9.7942    2.0000    0.0000 C   0  0  0  0  0  0  0  0  0  0  0  0
    9.7942    4.0000    0.0000 C   0  0  0  0  0  0  0  0  0  0  0  0
    8.9282    4.5000    0.0000 C   0  0  0  0  0  0  0  0  0  0  0  0
   10.6603    1.5000    0.0000 C   0  0  0  0  0  0  0  0  0  0  0  0
    8.9282    1.5000    0.0000 C   0  0  0  0  0  0  0  0  0  0  0  0
    7.1962    4.5000    0.0000 C   0  0  0  0  0  0  0  0  0  0  0  0
   10.6603    4.5000    0.0000 C   0  0  0  0  0  0  0  0  0  0  0  0
    8.9282    5.5000    0.0000 C   0  0  0  0  0  0  0  0  0  0  0  0
    7.1962    5.5000    0.0000 C   0  0  0  0  0  0  0  0  0  0  0  0
    6.3301    6.0000    0.0000 C   0  0  0  0  0  0  0  0  0  0  0  0
   10.6603    5.5000    0.0000 C   0  0  0  0  0  0  0  0  0  0  0  0
    9.7942    6.0000    0.0000 C   0  0  0  0  0  0  0  0  0  0  0  0
    5.1350   -2.3100    0.0000 H   0  0  0  0  0  0  0  0  0  0  0  0
    3.1215   -1.3923    0.0000 H   0  0  0  0  0  0  0  0  0  0  0  0
    3.5200   -2.0826    0.0000 H   0  0  0  0  0  0  0  0  0  0  0  0
    5.6762   -2.0826    0.0000 H   0  0  0  0  0  0  0  0  0  0  0  0
    6.0747   -1.3923    0.0000 H   0  0  0  0  0  0  0  0  0  0  0  0
    3.5200    0.0826    0.0000 H   0  0  0  0  0  0  0  0  0  0  0  0
    3.1215   -0.6077    0.0000 H   0  0  0  0  0  0  0  0  0  0  0  0
    6.0747   -0.6077    0.0000 H   0  0  0  0  0  0  0  0  0  0  0  0
    5.6762    0.0826    0.0000 H   0  0  0  0  0  0  0  0  0  0  0  0
    3.5200   -2.9174    0.0000 H   0  0  0  0  0  0  0  0  0  0  0  0
    3.1215   -3.6077    0.0000 H   0  0  0  0  0  0  0  0  0  0  0  0
    6.0747   -3.6077    0.0000 H   0  0  0  0  0  0  0  0  0  0  0  0
    5.6762   -2.9174    0.0000 H   0  0  0  0  0  0  0  0  0  0  0  0
    3.1215   -4.3923    0.0000 H   0  0  0  0  0  0  0  0  0  0  0  0
    3.5200   -5.0826    0.0000 H   0  0  0  0  0  0  0  0  0  0  0  0
    5.6762   -5.0826    0.0000 H   0  0  0  0  0  0  0  0  0  0  0  0
    6.0747   -4.3923    0.0000 H   0  0  0  0  0  0  0  0  0  0  0  0
    3.9781   -6.0000    0.0000 H   0  0  0  0  0  0  0  0  0  0  0  0
    4.5981   -6.6200    0.0000 H   0  0  0  0  0  0  0  0  0  0  0  0
    5.2181   -6.0000    0.0000 H   0  0  0  0  0  0  0  0  0  0  0  0
    3.1951    1.1900    0.0000 H   0  0  0  0  0  0  0  0  0  0  0  0
    6.0010    1.1900    0.0000 H   0  0  0  0  0  0  0  0  0  0  0  0
    6.0010    2.8100    0.0000 H   0  0  0  0  0  0  0  0  0  0  0  0
    4.0611    4.3100    0.0000 H   0  0  0  0  0  0  0  0  0  0  0  0
    1.6900    3.0369    0.0000 H   0  0  0  0  0  0  0  0  0  0  0  0
    1.4631    2.1900    0.0000 H   0  0  0  0  0  0  0  0  0  0  0  0
    2.3100    1.9631    0.0000 H   0  0  0  0  0  0  0  0  0  0  0  0
    9.2573    2.3100    0.0000 H   0  0  0  0  0  0  0  0  0  0  0  0
   10.3503    0.9631    0.0000 H   0  0  0  0  0  0  0  0  0  0  0  0
   11.1972    1.1900    0.0000 H   0  0  0  0  0  0  0  0  0  0  0  0
   10.9703    2.0369    0.0000 H   0  0  0  0  0  0  0  0  0  0  0  0
    8.6182    2.0369    0.0000 H   0  0  0  0  0  0  0  0  0  0  0  0
    8.3913    1.1900    0.0000 H   0  0  0  0  0  0  0  0  0  0  0  0
    9.2382    0.9631    0.0000 H   0  0  0  0  0  0  0  0  0  0  0  0
    8.0622    3.3800    0.0000 H   0  0  0  0  0  0  0  0  0  0  0  0
   11.1972    4.1900    0.0000 H   0  0  0  0  0  0  0  0  0  0  0  0
    8.3913    5.8100    0.0000 H   0  0  0  0  0  0  0  0  0  0  0  0
   11.1972    5.8100    0.0000 H   0  0  0  0  0  0  0  0  0  0  0  0
    6.3301    6.6200    0.0000 H   0  0  0  0  0  0  0  0  0  0  0  0
    9.7942    6.6200    0.0000 H   0  0  0  0  0  0  0  0  0  0  0  0
  1 39  1  0  0  0  0
  2  4  2  0  0  0  0
  2  5  2  0  0  0  0
  2 31  1  0  0  0  0
  2 32  1  0  0  0  0
  3 26  1  0  0  0  0
  3 30  1  0  0  0  0
  6 13  1  0  0  0  0
  6 18  1  0  0  0  0
  6 19  1  0  0  0  0
  7 16  1  0  0  0  0
  7 17  1  0  0  0  0
  7 22  1  0  0  0  0
  8 20  1  0  0  0  0
  8 21  1  0  0  0  0
  8 23  1  0  0  0  0
  9 28  1  0  0  0  0
  9 29  1  0  0  0  0
  9 66  1  0  0  0  0
 10 29  1  0  0  0  0
 10 36  2  0  0  0  0
 11 29  2  0  0  0  0
 11 40  1  0  0  0  0
 12 33  1  0  0  0  0
 12 36  1  0  0  0  0
 12 77  1  0  0  0  0
 13 14  1  0  0  0  0
 13 15  1  0  0  0  0
 13 43  1  0  0  0  0
 14 16  1  0  0  0  0
 14 44  1  0  0  0  0
 14 45  1  0  0  0  0
 15 17  1  0  0  0  0
 15 46  1  0  0  0  0
 15 47  1  0  0  0  0
 16 48  1  0  0  0  0
 16 49  1  0  0  0  0
 17 50  1  0  0  0  0
 17 51  1  0  0  0  0
 18 20  1  0  0  0  0
 18 52  1  0  0  0  0
 18 53  1  0  0  0  0
 19 21  1  0  0  0  0
 19 54  1  0  0  0  0
 19 55  1  0  0  0  0
 20 56  1  0  0  0  0
 20 57  1  0  0  0  0
 21 58  1  0  0  0  0
 21 59  1  0  0  0  0
 22 24  2  0  0  0  0
 22 25  1  0  0  0  0
 23 60  1  0  0  0  0
 23 61  1  0  0  0  0
 23 62  1  0  0  0  0
 24 26  1  0  0  0  0
 24 63  1  0  0  0  0
 25 27  2  0  0  0  0
 25 64  1  0  0  0  0
 26 28  2  0  0  0  0
 27 28  1  0  0  0  0
 27 65  1  0  0  0  0
 30 67  1  0  0  0  0
 30 68  1  0  0  0  0
 30 69  1  0  0  0  0
 31 34  1  0  0  0  0
 31 35  1  0  0  0  0
 31 70  1  0  0  0  0
 32 33  1  0  0  0  0
 32 37  2  0  0  0  0
 33 38  2  0  0  0  0
 34 71  1  0  0  0  0
 34 72  1  0  0  0  0
 34 73  1  0  0  0  0
 35 74  1  0  0  0  0
 35 75  1  0  0  0  0
 35 76  1  0  0  0  0
 36 39  1  0  0  0  0
 37 41  1  0  0  0  0
 37 78  1  0  0  0  0
 38 42  1  0  0  0  0
 38 79  1  0  0  0  0
 39 40  2  0  0  0  0
 40 81  1  0  0  0  0
 41 42  2  0  0  0  0
 41 80  1  0  0  0  0
 42 82  1  0  0  0  0
M  END
> <PUBCHEM_COMPOUND_CID>
16038120

> <PUBCHEM_COMPOUND_CANONICALIZED>
1

> <PUBCHEM_CACTVS_COMPLEXITY>
940

> <PUBCHEM_CACTVS_HBOND_ACCEPTOR>
10

> <PUBCHEM_CACTVS_HBOND_DONOR>
2

> <PUBCHEM_CACTVS_ROTATABLE_BOND>
9

> <PUBCHEM_CACTVS_SUBSKEYS>
AAADcfB7sABEAAAAAAAAAAAAAAAAAAAAAAA8eLECAAAAAAAB0AAAHgYQAAAACC7F0ia/95fIFAqgADZnZHDCiCkxK7AJ2DwvbJiObuLk+dvVNChu0Bv46CeQUAMAAACAAgAAEQAAAQAEAAAiAAAAAAAAAA==

> <PUBCHEM_IUPAC_OPENEYE_NAME>
5-chloro-N4-(2-isopropylsulfonylphenyl)-N2-[2-methoxy-4-[4-(4-methylpiperazin-1-yl)-1-piperidyl]phenyl]pyrimidine-2,4-diamine

> <PUBCHEM_IUPAC_CAS_NAME>
5-chloro-N2-[2-methoxy-4-[4-(4-methyl-1-piperazinyl)-1-piperidinyl]phenyl]-N4-(2-propan-2-ylsulfonylphenyl)pyrimidine-2,4-diamine

> <PUBCHEM_IUPAC_NAME_MARKUP>
5-chloro-2-<I>N</I>-[2-methoxy-4-[4-(4-methylpiperazin-1-yl)piperidin-1-yl]phenyl]-4-<I>N</I>-(2-propan-2-ylsulfonylphenyl)pyrimidine-2,4-diamine

> <PUBCHEM_IUPAC_NAME>
5-chloro-2-N-[2-methoxy-4-[4-(4-methylpiperazin-1-yl)piperidin-1-yl]phenyl]-4-N-(2-propan-2-ylsulfonylphenyl)pyrimidine-2,4-diamine

> <PUBCHEM_IUPAC_SYSTEMATIC_NAME>
5-chloranyl-N2-[2-methoxy-4-[4-(4-methylpiperazin-1-yl)piperidin-1-yl]phenyl]-N4-(2-propan-2-ylsulfonylphenyl)pyrimidine-2,4-diamine

> <PUBCHEM_IUPAC_TRADITIONAL_NAME>
[5-chloro-4-(2-isopropylsulfonylanilino)pyrimidin-2-yl]-[2-methoxy-4-[4-(4-methylpiperazino)piperidino]phenyl]amine

> <PUBCHEM_IUPAC_INCHI>
InChI=1S/C30H40ClN7O3S/c1-21(2)42(39,40)28-8-6-5-7-26(28)33-29-24(31)20-32-30(35-29)34-25-10-9-23(19-27(25)41-4)37-13-11-22(12-14-37)38-17-15-36(3)16-18-38/h5-10,19-22H,11-18H2,1-4H3,(H2,32,33,34,35)

> <PUBCHEM_IUPAC_INCHIKEY>
QQWUGDVOUVUTOY-UHFFFAOYSA-N

> <PUBCHEM_XLOGP3_AA>
5.7

> <PUBCHEM_EXACT_MASS>
613.2601870

> <PUBCHEM_MOLECULAR_FORMULA>
C30H40ClN7O3S

> <PUBCHEM_MOLECULAR_WEIGHT>
614.2

> <PUBCHEM_OPENEYE_CAN_SMILES>
CC(C)S(=O)(=O)C1=CC=CC=C1NC2=NC(=NC=C2Cl)NC3=C(C=C(C=C3)N4CCC(CC4)N5CCN(CC5)C)OC

> <PUBCHEM_OPENEYE_ISO_SMILES>
CC(C)S(=O)(=O)C1=CC=CC=C1NC2=NC(=NC=C2Cl)NC3=C(C=C(C=C3)N4CCC(CC4)N5CCN(CC5)C)OC

> <PUBCHEM_CACTVS_TPSA>
111

> <PUBCHEM_MONOISOTOPIC_WEIGHT>
613.2601870

> <PUBCHEM_TOTAL_CHARGE>
0

> <PUBCHEM_HEAVY_ATOM_COUNT>
42

> <PUBCHEM_ATOM_DEF_STEREO_COUNT>
0

> <PUBCHEM_ATOM_UDEF_STEREO_COUNT>
0

> <PUBCHEM_BOND_DEF_STEREO_COUNT>
0

> <PUBCHEM_BOND_UDEF_STEREO_COUNT>
0

> <PUBCHEM_ISOTOPIC_ATOM_COUNT>
0

> <PUBCHEM_COMPONENT_COUNT>
1

> <PUBCHEM_CACTVS_TAUTO_COUNT>
-1

> <PUBCHEM_COORDINATE_TYPE>
1
5
255

> <PUBCHEM_BONDANNOTATIONS>
10  29  8
10  36  8
11  29  8
11  40  8
22  24  8
22  25  8
24  26  8
25  27  8
26  28  8
27  28  8
32  33  8
32  37  8
33  38  8
36  39  8
37  41  8
38  42  8
39  40  8
41  42  8

$$$$
44205240
  -OEChem-11282412102D

 43 46  0     0  0  0  0  0  0999 V2000
    3.3461    1.9602    0.0000 S   0  0  0  0  0  0  0  0  0  0  0  0
    3.5025    2.9479    0.0000 O   0  0  0  0  0  0  0  0  0  0  0  0
    3.1896    0.9725    0.0000 O   0  0  0  0  0  0  0  0  0  0  0  0
    4.3337    1.8038    0.0000 N   0  0  0  0  0  0  0  0  0  0  0  0
    6.3183    0.7735    0.0000 N   0  0  0  0  0  0  0  0  0  0  0  0
    7.3183    0.7735    0.0000 N   0  0  0  0  0  0  0  0  0  0  0  0
    6.3305    4.1594    0.0000 N   0  0  0  0  0  0  0  0  0  0  0  0
    5.9523   -2.2653    0.0000 N   0  0  0  0  0  0  0  0  0  0  0  0
    8.6306   -3.5700    0.0000 N   0  0  0  0  0  0  0  0  0  0  0  0
    6.8183   -3.7653    0.0000 N   0  0  0  0  0  0  0  0  0  0  0  0
    5.7306    1.5825    0.0000 C   0  0  0  0  0  0  0  0  0  0  0  0
    4.9215    0.9948    0.0000 C   0  0  0  0  0  0  0  0  0  0  0  0
    5.1428    2.3916    0.0000 C   0  0  0  0  0  0  0  0  0  0  0  0
    6.5396    2.1703    0.0000 C   0  0  0  0  0  0  0  0  0  0  0  0
    2.3584    2.1166    0.0000 C   0  0  0  0  0  0  0  0  0  0  0  0
    6.0093   -0.1775    0.0000 C   0  0  0  0  0  0  0  0  0  0  0  0
    6.8183   -0.7653    0.0000 C   0  0  0  0  0  0  0  0  0  0  0  0
    6.4350    3.1648    0.0000 C   0  0  0  0  0  0  0  0  0  0  0  0
    7.6274   -0.1775    0.0000 C   0  0  0  0  0  0  0  0  0  0  0  0
    2.0000    3.0502    0.0000 C   0  0  0  0  0  0  0  0  0  0  0  0
    6.8183   -1.7653    0.0000 C   0  0  0  0  0  0  0  0  0  0  0  0
    7.6844   -2.2653    0.0000 C   0  0  0  0  0  0  0  0  0  0  0  0
    7.6844   -3.2653    0.0000 C   0  0  0  0  0  0  0  0  0  0  0  0
    8.6306   -1.9606    0.0000 C   0  0  0  0  0  0  0  0  0  0  0  0
    5.9523   -3.2653    0.0000 C   0  0  0  0  0  0  0  0  0  0  0  0
    9.2142   -2.7653    0.0000 C   0  0  0  0  0  0  0  0  0  0  0  0
    4.4199    0.6303    0.0000 H   0  0  0  0  0  0  0  0  0  0  0  0
    5.2860    0.4932    0.0000 H   0  0  0  0  0  0  0  0  0  0  0  0
    5.6444    2.7560    0.0000 H   0  0  0  0  0  0  0  0  0  0  0  0
    4.7783    2.8932    0.0000 H   0  0  0  0  0  0  0  0  0  0  0  0
    6.8114    1.6131    0.0000 H   0  0  0  0  0  0  0  0  0  0  0  0
    7.1356    2.3412    0.0000 H   0  0  0  0  0  0  0  0  0  0  0  0
    1.7498    1.9983    0.0000 H   0  0  0  0  0  0  0  0  0  0  0  0
    2.3692    1.4967    0.0000 H   0  0  0  0  0  0  0  0  0  0  0  0
    5.4197   -0.3691    0.0000 H   0  0  0  0  0  0  0  0  0  0  0  0
    8.2170   -0.3691    0.0000 H   0  0  0  0  0  0  0  0  0  0  0  0
    2.5788    3.2724    0.0000 H   0  0  0  0  0  0  0  0  0  0  0  0
    1.7778    3.6290    0.0000 H   0  0  0  0  0  0  0  0  0  0  0  0
    1.4212    2.8280    0.0000 H   0  0  0  0  0  0  0  0  0  0  0  0
    8.8232   -1.3713    0.0000 H   0  0  0  0  0  0  0  0  0  0  0  0
    8.8232   -4.1594    0.0000 H   0  0  0  0  0  0  0  0  0  0  0  0
    9.8342   -2.7653    0.0000 H   0  0  0  0  0  0  0  0  0  0  0  0
    5.4154   -3.5753    0.0000 H   0  0  0  0  0  0  0  0  0  0  0  0
  1  2  2  0  0  0  0
  1  3  2  0  0  0  0
  1  4  1  0  0  0  0
  1 15  1  0  0  0  0
  4 12  1  0  0  0  0
  4 13  1  0  0  0  0
  5  6  1  0  0  0  0
  5 11  1  0  0  0  0
  5 16  1  0  0  0  0
  6 19  2  0  0  0  0
  7 18  3  0  0  0  0
  8 21  1  0  0  0  0
  8 25  2  0  0  0  0
  9 23  1  0  0  0  0
  9 26  1  0  0  0  0
  9 41  1  0  0  0  0
 10 23  2  0  0  0  0
 10 25  1  0  0  0  0
 11 12  1  0  0  0  0
 11 13  1  0  0  0  0
 11 14  1  0  0  0  0
 12 27  1  0  0  0  0
 12 28  1  0  0  0  0
 13 29  1  0  0  0  0
 13 30  1  0  0  0  0
 14 18  1  0  0  0  0
 14 31  1  0  0  0  0
 14 32  1  0  0  0  0
 15 20  1  0  0  0  0
 15 33  1  0  0  0  0
 15 34  1  0  0  0  0
 16 17  2  0  0  0  0
 16 35  1  0  0  0  0
 17 19  1  0  0  0  0
 17 21  1  0  0  0  0
 19 36  1  0  0  0  0
 20 37  1  0  0  0  0
 20 38  1  0  0  0  0
 20 39  1  0  0  0  0
 21 22  2  0  0  0  0
 22 23  1  0  0  0  0
 22 24  1  0  0  0  0
 24 26  2  0  0  0  0
 24 40  1  0  0  0  0
 25 43  1  0  0  0  0
 26 42  1  0  0  0  0
M  END
> <PUBCHEM_COMPOUND_CID>
44205240

> <PUBCHEM_COMPOUND_CANONICALIZED>
1

> <PUBCHEM_CACTVS_COMPLEXITY>
678

> <PUBCHEM_CACTVS_HBOND_ACCEPTOR>
7

> <PUBCHEM_CACTVS_HBOND_DONOR>
1

> <PUBCHEM_CACTVS_ROTATABLE_BOND>
5

> <PUBCHEM_CACTVS_SUBSKEYS>
AAADceB7sABAAAAAAAAAAAAAAABYAWLAAAAsAAAAAAAAAFgB/gAAHAQYQAAADIjFXwS/sN7JkAKyBzZnZHDShCmxgqAZ2aA4ZJiI6OLA2dGUpAhomALIyC8QAAAOAAAAAAAAAAAAAAAAAAAAAAAAAAAAAA==

> <PUBCHEM_IUPAC_OPENEYE_NAME>
2-[1-ethylsulfonyl-3-[4-(7H-pyrrolo[2,3-d]pyrimidin-4-yl)pyrazol-1-yl]azetidin-3-yl]acetonitrile

> <PUBCHEM_IUPAC_CAS_NAME>
2-[1-ethylsulfonyl-3-[4-(7H-pyrrolo[2,3-d]pyrimidin-4-yl)-1-pyrazolyl]-3-azetidinyl]acetonitrile

> <PUBCHEM_IUPAC_NAME_MARKUP>
2-[1-ethylsulfonyl-3-[4-(7<I>H</I>-pyrrolo[2,3-d]pyrimidin-4-yl)pyrazol-1-yl]azetidin-3-yl]acetonitrile

> <PUBCHEM_IUPAC_NAME>
2-[1-ethylsulfonyl-3-[4-(7H-pyrrolo[2,3-d]pyrimidin-4-yl)pyrazol-1-yl]azetidin-3-yl]acetonitrile

> <PUBCHEM_IUPAC_SYSTEMATIC_NAME>
2-[1-ethylsulfonyl-3-[4-(7H-pyrrolo[2,3-d]pyrimidin-4-yl)pyrazol-1-yl]azetidin-3-yl]ethanenitrile

> <PUBCHEM_IUPAC_TRADITIONAL_NAME>
2-[1-esyl-3-[4-(7H-pyrrolo[2,3-d]pyrimidin-4-yl)pyrazol-1-yl]azetidin-3-yl]acetonitrile

> <PUBCHEM_IUPAC_INCHI>
InChI=1S/C16H17N7O2S/c1-2-26(24,25)22-9-16(10-22,4-5-17)23-8-12(7-21-23)14-13-3-6-18-15(13)20-11-19-14/h3,6-8,11H,2,4,9-10H2,1H3,(H,18,19,20)

> <PUBCHEM_IUPAC_INCHIKEY>
XUZMWHLSFXCVMG-UHFFFAOYSA-N

> <PUBCHEM_XLOGP3_AA>
-0.5

> <PUBCHEM_EXACT_MASS>
371.11644398

> <PUBCHEM_MOLECULAR_FORMULA>
C16H17N7O2S

> <PUBCHEM_MOLECULAR_WEIGHT>
371.4

> <PUBCHEM_OPENEYE_CAN_SMILES>
CCS(=O)(=O)N1CC(C1)(CC#N)N2C=C(C=N2)C3=C4C=CNC4=NC=N3

> <PUBCHEM_OPENEYE_ISO_SMILES>
CCS(=O)(=O)N1CC(C1)(CC#N)N2C=C(C=N2)C3=C4C=CNC4=NC=N3

> <PUBCHEM_CACTVS_TPSA>
129

> <PUBCHEM_MONOISOTOPIC_WEIGHT>
371.11644398

> <PUBCHEM_TOTAL_CHARGE>
0

> <PUBCHEM_HEAVY_ATOM_COUNT>
26

> <PUBCHEM_ATOM_DEF_STEREO_COUNT>
0

> <PUBCHEM_ATOM_UDEF_STEREO_COUNT>
0

> <PUBCHEM_BOND_DEF_STEREO_COUNT>
0

> <PUBCHEM_BOND_UDEF_STEREO_COUNT>
0

> <PUBCHEM_ISOTOPIC_ATOM_COUNT>
0

> <PUBCHEM_COMPONENT_COUNT>
1

> <PUBCHEM_CACTVS_TAUTO_COUNT>
-1

> <PUBCHEM_COORDINATE_TYPE>
1
5
255

> <PUBCHEM_BONDANNOTATIONS>
10  23  8
10  25  8
16  17  8
17  19  8
21  22  8
22  23  8
22  24  8
24  26  8
5  16  8
5  6  8
6  19  8
8  21  8
8  25  8
9  23  8
9  26  8

$$$$
59473233
  -OEChem-11282412102D

 52 57  0     0  0  0  0  0  0999 V2000
    2.0000   -4.2166    0.0000 O   0  0  0  0  0  0  0  0  0  0  0  0
    3.7320   -3.2166    0.0000 N   0  0  0  0  0  0  0  0  0  0  0  0
    7.1962   -1.2166    0.0000 N   0  0  0  0  0  0  0  0  0  0  0  0
    8.0622    1.2834    0.0000 N   0  0  0  0  0  0  0  0  0  0  0  0
    6.3301    0.2834    0.0000 N   0  0  0  0  0  0  0  0  0  0  0  0
    9.0084   -0.0214    0.0000 N   0  0  0  0  0  0  0  0  0  0  0  0
    4.3889    4.2552    0.0000 N   0  0  0  0  0  0  0  0  0  0  0  0
    3.4002    4.3582    0.0000 N   0  0  0  0  0  0  0  0  0  0  0  0
    3.7320   -4.2166    0.0000 C   0  0  0  0  0  0  0  0  0  0  0  0
    2.8660   -2.7166    0.0000 C   0  0  0  0  0  0  0  0  0  0  0  0
    2.8660   -4.7166    0.0000 C   0  0  0  0  0  0  0  0  0  0  0  0
    2.0000   -3.2166    0.0000 C   0  0  0  0  0  0  0  0  0  0  0  0
    4.5981   -2.7166    0.0000 C   0  0  0  0  0  0  0  0  0  0  0  0
    4.5981   -1.7166    0.0000 C   0  0  0  0  0  0  0  0  0  0  0  0
    5.4641   -3.2166    0.0000 C   0  0  0  0  0  0  0  0  0  0  0  0
    6.3301   -1.7166    0.0000 C   0  0  0  0  0  0  0  0  0  0  0  0
    5.4641   -1.2166    0.0000 C   0  0  0  0  0  0  0  0  0  0  0  0
    6.3301   -2.7166    0.0000 C   0  0  0  0  0  0  0  0  0  0  0  0
    7.1962   -0.2166    0.0000 C   0  0  0  0  0  0  0  0  0  0  0  0
    8.0622    0.2834    0.0000 C   0  0  0  0  0  0  0  0  0  0  0  0
    6.3301    1.2834    0.0000 C   0  0  0  0  0  0  0  0  0  0  0  0
    5.4641    1.7834    0.0000 C   0  0  0  0  0  0  0  0  0  0  0  0
    7.1962    1.7834    0.0000 C   0  0  0  0  0  0  0  0  0  0  0  0
    4.5981    3.2834    0.0000 C   0  0  0  0  0  0  0  0  0  0  0  0
    5.4641    2.7834    0.0000 C   0  0  0  0  0  0  0  0  0  0  0  0
    3.7320    2.7834    0.0000 C   0  0  0  0  0  0  0  0  0  0  0  0
    4.5981    1.2834    0.0000 C   0  0  0  0  0  0  0  0  0  0  0  0
    9.0084    1.5881    0.0000 C   0  0  0  0  0  0  0  0  0  0  0  0
    3.7320    1.7834    0.0000 C   0  0  0  0  0  0  0  0  0  0  0  0
    9.5920    0.7834    0.0000 C   0  0  0  0  0  0  0  0  0  0  0  0
    2.9950    3.4504    0.0000 C   0  0  0  0  0  0  0  0  0  0  0  0
    3.9441   -4.7992    0.0000 H   0  0  0  0  0  0  0  0  0  0  0  0
    4.3426   -4.1090    0.0000 H   0  0  0  0  0  0  0  0  0  0  0  0
    3.2646   -2.2417    0.0000 H   0  0  0  0  0  0  0  0  0  0  0  0
    2.4675   -2.2417    0.0000 H   0  0  0  0  0  0  0  0  0  0  0  0
    2.4675   -5.1916    0.0000 H   0  0  0  0  0  0  0  0  0  0  0  0
    3.2646   -5.1916    0.0000 H   0  0  0  0  0  0  0  0  0  0  0  0
    1.7880   -2.6340    0.0000 H   0  0  0  0  0  0  0  0  0  0  0  0
    1.3894   -3.3243    0.0000 H   0  0  0  0  0  0  0  0  0  0  0  0
    4.0611   -1.4066    0.0000 H   0  0  0  0  0  0  0  0  0  0  0  0
    5.4641   -3.8366    0.0000 H   0  0  0  0  0  0  0  0  0  0  0  0
    5.4641   -0.5966    0.0000 H   0  0  0  0  0  0  0  0  0  0  0  0
    6.8671   -3.0266    0.0000 H   0  0  0  0  0  0  0  0  0  0  0  0
    7.7331   -1.5266    0.0000 H   0  0  0  0  0  0  0  0  0  0  0  0
    7.1962    2.4034    0.0000 H   0  0  0  0  0  0  0  0  0  0  0  0
    6.0010    3.0934    0.0000 H   0  0  0  0  0  0  0  0  0  0  0  0
    4.5981    0.6634    0.0000 H   0  0  0  0  0  0  0  0  0  0  0  0
    9.2010    2.1774    0.0000 H   0  0  0  0  0  0  0  0  0  0  0  0
    3.1951    1.4734    0.0000 H   0  0  0  0  0  0  0  0  0  0  0  0
   10.2120    0.7834    0.0000 H   0  0  0  0  0  0  0  0  0  0  0  0
    4.8029    4.7166    0.0000 H   0  0  0  0  0  0  0  0  0  0  0  0
    2.3884    3.3226    0.0000 H   0  0  0  0  0  0  0  0  0  0  0  0
  1 11  1  0  0  0  0
  1 12  1  0  0  0  0
  2  9  1  0  0  0  0
  2 10  1  0  0  0  0
  2 13  1  0  0  0  0
  3 16  1  0  0  0  0
  3 19  1  0  0  0  0
  3 44  1  0  0  0  0
  4 20  1  0  0  0  0
  4 23  1  0  0  0  0
  4 28  1  0  0  0  0
  5 19  2  0  0  0  0
  5 21  1  0  0  0  0
  6 20  2  0  0  0  0
  6 30  1  0  0  0  0
  7  8  1  0  0  0  0
  7 24  1  0  0  0  0
  7 51  1  0  0  0  0
  8 31  2  0  0  0  0
  9 11  1  0  0  0  0
  9 32  1  0  0  0  0
  9 33  1  0  0  0  0
 10 12  1  0  0  0  0
 10 34  1  0  0  0  0
 10 35  1  0  0  0  0
 11 36  1  0  0  0  0
 11 37  1  0  0  0  0
 12 38  1  0  0  0  0
 12 39  1  0  0  0  0
 13 14  2  0  0  0  0
 13 15  1  0  0  0  0
 14 17  1  0  0  0  0
 14 40  1  0  0  0  0
 15 18  2  0  0  0  0
 15 41  1  0  0  0  0
 16 17  2  0  0  0  0
 16 18  1  0  0  0  0
 17 42  1  0  0  0  0
 18 43  1  0  0  0  0
 19 20  1  0  0  0  0
 21 22  1  0  0  0  0
 21 23  2  0  0  0  0
 22 25  2  0  0  0  0
 22 27  1  0  0  0  0
 23 45  1  0  0  0  0
 24 25  1  0  0  0  0
 24 26  2  0  0  0  0
 25 46  1  0  0  0  0
 26 29  1  0  0  0  0
 26 31  1  0  0  0  0
 27 29  2  0  0  0  0
 27 47  1  0  0  0  0
 28 30  2  0  0  0  0
 28 48  1  0  0  0  0
 29 49  1  0  0  0  0
 30 50  1  0  0  0  0
 31 52  1  0  0  0  0
M  END
> <PUBCHEM_COMPOUND_CID>
59473233

> <PUBCHEM_COMPOUND_CANONICALIZED>
1

> <PUBCHEM_CACTVS_COMPLEXITY>
595

> <PUBCHEM_CACTVS_HBOND_ACCEPTOR>
6

> <PUBCHEM_CACTVS_HBOND_DONOR>
2

> <PUBCHEM_CACTVS_ROTATABLE_BOND>
4

> <PUBCHEM_CACTVS_SUBSKEYS>
AAADceB7oAAAAAAAAAAAAAAAAAAAAWLAAAA8eIEAAAAAAFgB/gAAHgAYAAAADAjhnwY98P/vHACiAzZnZACShC0xkqAZ+SA4dJiKaOLA2dGXpAhomALYyCcQgMAOQACAQAACAACAAQCAAAQAAAAAAAAAAA==

> <PUBCHEM_IUPAC_OPENEYE_NAME>
6-(1H-indazol-6-yl)-N-(4-morpholinophenyl)imidazo[1,2-a]pyrazin-8-amine

> <PUBCHEM_IUPAC_CAS_NAME>
6-(1H-indazol-6-yl)-N-[4-(4-morpholinyl)phenyl]-8-imidazo[1,2-a]pyrazinamine

> <PUBCHEM_IUPAC_NAME_MARKUP>
6-(1<I>H</I>-indazol-6-yl)-<I>N</I>-(4-morpholin-4-ylphenyl)imidazo[1,2-a]pyrazin-8-amine

> <PUBCHEM_IUPAC_NAME>
6-(1H-indazol-6-yl)-N-(4-morpholin-4-ylphenyl)imidazo[1,2-a]pyrazin-8-amine

> <PUBCHEM_IUPAC_SYSTEMATIC_NAME>
6-(1H-indazol-6-yl)-N-(4-morpholin-4-ylphenyl)imidazo[1,2-a]pyrazin-8-amine

> <PUBCHEM_IUPAC_TRADITIONAL_NAME>
[6-(1H-indazol-6-yl)imidazo[1,2-a]pyrazin-8-yl]-(4-morpholinophenyl)amine

> <PUBCHEM_IUPAC_INCHI>
InChI=1S/C23H21N7O/c1-2-17-14-25-28-20(17)13-16(1)21-15-30-8-7-24-23(30)22(27-21)26-18-3-5-19(6-4-18)29-9-11-31-12-10-29/h1-8,13-15H,9-12H2,(H,25,28)(H,26,27)

> <PUBCHEM_IUPAC_INCHIKEY>
XSMSNFMDVXXHGJ-UHFFFAOYSA-N

> <PUBCHEM_XLOGP3_AA>
3.6

> <PUBCHEM_EXACT_MASS>
411.18075832

> <PUBCHEM_MOLECULAR_FORMULA>
C23H21N7O

> <PUBCHEM_MOLECULAR_WEIGHT>
411.5

> <PUBCHEM_OPENEYE_CAN_SMILES>
C1COCCN1C2=CC=C(C=C2)NC3=NC(=CN4C3=NC=C4)C5=CC6=C(C=C5)C=NN6

> <PUBCHEM_OPENEYE_ISO_SMILES>
C1COCCN1C2=CC=C(C=C2)NC3=NC(=CN4C3=NC=C4)C5=CC6=C(C=C5)C=NN6

> <PUBCHEM_CACTVS_TPSA>
83.4

> <PUBCHEM_MONOISOTOPIC_WEIGHT>
411.18075832

> <PUBCHEM_TOTAL_CHARGE>
0

> <PUBCHEM_HEAVY_ATOM_COUNT>
31

> <PUBCHEM_ATOM_DEF_STEREO_COUNT>
0

> <PUBCHEM_ATOM_UDEF_STEREO_COUNT>
0

> <PUBCHEM_BOND_DEF_STEREO_COUNT>
0

> <PUBCHEM_BOND_UDEF_STEREO_COUNT>
0

> <PUBCHEM_ISOTOPIC_ATOM_COUNT>
0

> <PUBCHEM_COMPONENT_COUNT>
1

> <PUBCHEM_CACTVS_TAUTO_COUNT>
-1

> <PUBCHEM_COORDINATE_TYPE>
1
5
255

> <PUBCHEM_BONDANNOTATIONS>
13  14  8
13  15  8
14  17  8
15  18  8
16  17  8
16  18  8
19  20  8
21  23  8
22  25  8
22  27  8
24  25  8
24  26  8
26  29  8
26  31  8
27  29  8
28  30  8
4  20  8
4  23  8
4  28  8
5  19  8
5  21  8
6  20  8
6  30  8
7  24  8
7  8  8
8  31  8

$$$$
71721648
  -OEChem-11282412102D

 79 83  0     1  0  0  0  0  0999 V2000
   14.6120    0.5115    0.0000 Cl  0  0  0  0  0  0  0  0  0  0  0  0
    9.3585    3.5086    0.0000 O   0  0  0  0  0  0  0  0  0  0  0  0
    2.6131   -3.1871    0.0000 O   0  0  0  0  0  0  0  0  0  0  0  0
   12.0236   -1.9985    0.0000 O   0  0  0  0  0  0  0  0  0  0  0  0
    6.0959   -0.2088    0.0000 N   0  0  0  0  0  0  0  0  0  0  0  0
    4.8489   -1.7725    0.0000 N   0  0  0  0  0  0  0  0  0  0  0  0
   11.1402    2.4981    0.0000 N   0  0  0  0  0  0  0  0  0  0  0  0
   12.0120    1.0015    0.0000 N   0  0  0  0  0  0  0  0  0  0  0  0
   12.8723    2.5048    0.0000 N   0  0  0  0  0  0  0  0  0  0  0  0
   12.8838   -0.4952    0.0000 N   0  0  0  0  0  0  0  0  0  0  0  0
   12.8954   -3.4952    0.0000 N   0  0  0  0  0  0  0  0  0  0  0  0
    6.7194    0.5730    0.0000 C   0  0  1  0  0  0  0  0  0  0  0  0
    6.2855    1.4740    0.0000 C   0  0  0  0  0  0  0  0  0  0  0  0
    7.6943    0.3505    0.0000 C   0  0  0  0  0  0  0  0  0  0  0  0
    5.1070   -0.0598    0.0000 C   0  0  0  0  0  0  0  0  0  0  0  0
    6.4612   -1.1397    0.0000 C   0  0  0  0  0  0  0  0  0  0  0  0
    6.7194    2.3749    0.0000 C   0  0  0  0  0  0  0  0  0  0  0  0
    4.4835   -0.8416    0.0000 C   0  0  0  0  0  0  0  0  0  0  0  0
    5.8377   -1.9216    0.0000 C   0  0  0  0  0  0  0  0  0  0  0  0
    8.4761    0.9740    0.0000 C   0  0  0  0  0  0  0  0  0  0  0  0
    7.6943    2.5974    0.0000 C   0  0  0  0  0  0  0  0  0  0  0  0
    8.4761    1.9740    0.0000 C   0  0  0  0  0  0  0  0  0  0  0  0
    4.2254   -2.5543    0.0000 C   0  0  0  0  0  0  0  0  0  0  0  0
    9.3701    0.4393    0.0000 C   0  0  0  0  0  0  0  0  0  0  0  0
    9.3701    2.5086    0.0000 C   0  0  0  0  0  0  0  0  0  0  0  0
   10.2761    1.9948    0.0000 C   0  0  0  0  0  0  0  0  0  0  0  0
   10.2761    0.9531    0.0000 C   0  0  0  0  0  0  0  0  0  0  0  0
    3.2366   -2.4053    0.0000 C   0  0  0  0  0  0  0  0  0  0  0  0
    8.4867    3.9985    0.0000 C   0  0  0  0  0  0  0  0  0  0  0  0
   12.0082    2.0014    0.0000 C   0  0  0  0  0  0  0  0  0  0  0  0
   12.8800    0.5048    0.0000 C   0  0  0  0  0  0  0  0  0  0  0  0
   13.7402    2.0081    0.0000 C   0  0  0  0  0  0  0  0  0  0  0  0
   13.7441    1.0081    0.0000 C   0  0  0  0  0  0  0  0  0  0  0  0
   13.7518   -0.9919    0.0000 C   0  0  0  0  0  0  0  0  0  0  0  0
   13.7556   -1.9918    0.0000 C   0  0  0  0  0  0  0  0  0  0  0  0
   14.6159   -0.4885    0.0000 C   0  0  0  0  0  0  0  0  0  0  0  0
   14.6236   -2.4885    0.0000 C   0  0  0  0  0  0  0  0  0  0  0  0
   15.4838   -0.9852    0.0000 C   0  0  0  0  0  0  0  0  0  0  0  0
   12.8915   -2.4952    0.0000 C   0  0  0  0  0  0  0  0  0  0  0  0
   15.4877   -1.9852    0.0000 C   0  0  0  0  0  0  0  0  0  0  0  0
   12.0313   -3.9985    0.0000 C   0  0  0  0  0  0  0  0  0  0  0  0
    6.1032    0.6424    0.0000 H   0  0  0  0  0  0  0  0  0  0  0  0
    5.8007    1.8605    0.0000 H   0  0  0  0  0  0  0  0  0  0  0  0
    5.8007    1.0874    0.0000 H   0  0  0  0  0  0  0  0  0  0  0  0
    7.4253   -0.2081    0.0000 H   0  0  0  0  0  0  0  0  0  0  0  0
    8.1790   -0.0361    0.0000 H   0  0  0  0  0  0  0  0  0  0  0  0
    5.3045    0.5279    0.0000 H   0  0  0  0  0  0  0  0  0  0  0  0
    4.5625    0.2367    0.0000 H   0  0  0  0  0  0  0  0  0  0  0  0
    6.8714   -1.6046    0.0000 H   0  0  0  0  0  0  0  0  0  0  0  0
    6.9902   -0.8164    0.0000 H   0  0  0  0  0  0  0  0  0  0  0  0
    6.7194    2.9949    0.0000 H   0  0  0  0  0  0  0  0  0  0  0  0
    6.1149    2.5129    0.0000 H   0  0  0  0  0  0  0  0  0  0  0  0
    4.0733   -0.3768    0.0000 H   0  0  0  0  0  0  0  0  0  0  0  0
    3.9545   -1.1649    0.0000 H   0  0  0  0  0  0  0  0  0  0  0  0
    5.6402   -2.5093    0.0000 H   0  0  0  0  0  0  0  0  0  0  0  0
    6.3822   -2.2181    0.0000 H   0  0  0  0  0  0  0  0  0  0  0  0
    8.1790    2.9840    0.0000 H   0  0  0  0  0  0  0  0  0  0  0  0
    7.4253    3.1560    0.0000 H   0  0  0  0  0  0  0  0  0  0  0  0
    4.0279   -3.1420    0.0000 H   0  0  0  0  0  0  0  0  0  0  0  0
    4.7699   -2.8508    0.0000 H   0  0  0  0  0  0  0  0  0  0  0  0
    9.3629   -0.1807    0.0000 H   0  0  0  0  0  0  0  0  0  0  0  0
   10.8119    0.6411    0.0000 H   0  0  0  0  0  0  0  0  0  0  0  0
    3.4340   -1.8176    0.0000 H   0  0  0  0  0  0  0  0  0  0  0  0
    2.6921   -2.1088    0.0000 H   0  0  0  0  0  0  0  0  0  0  0  0
   11.1378    3.1181    0.0000 H   0  0  0  0  0  0  0  0  0  0  0  0
    2.0000   -3.0947    0.0000 H   0  0  0  0  0  0  0  0  0  0  0  0
    8.7905    4.5390    0.0000 H   0  0  0  0  0  0  0  0  0  0  0  0
    7.9463    4.3023    0.0000 H   0  0  0  0  0  0  0  0  0  0  0  0
    8.1830    3.4580    0.0000 H   0  0  0  0  0  0  0  0  0  0  0  0
   14.2759    2.3202    0.0000 H   0  0  0  0  0  0  0  0  0  0  0  0
   12.3481   -0.8073    0.0000 H   0  0  0  0  0  0  0  0  0  0  0  0
   14.6135    0.1315    0.0000 H   0  0  0  0  0  0  0  0  0  0  0  0
   14.6260   -3.1085    0.0000 H   0  0  0  0  0  0  0  0  0  0  0  0
   16.0195   -0.6731    0.0000 H   0  0  0  0  0  0  0  0  0  0  0  0
   16.0258   -2.2931    0.0000 H   0  0  0  0  0  0  0  0  0  0  0  0
   13.4335   -3.8031    0.0000 H   0  0  0  0  0  0  0  0  0  0  0  0
   11.7192   -3.4628    0.0000 H   0  0  0  0  0  0  0  0  0  0  0  0
   11.4956   -4.3106    0.0000 H   0  0  0  0  0  0  0  0  0  0  0  0
   12.3434   -4.5342    0.0000 H   0  0  0  0  0  0  0  0  0  0  0  0
  1 33  1  0  0  0  0
  2 25  1  0  0  0  0
  2 29  1  0  0  0  0
  3 28  1  0  0  0  0
  3 66  1  0  0  0  0
  4 39  2  0  0  0  0
 12  5  1  1  0  0  0
  5 15  1  0  0  0  0
  5 16  1  0  0  0  0
  6 18  1  0  0  0  0
  6 19  1  0  0  0  0
  6 23  1  0  0  0  0
  7 26  1  0  0  0  0
  7 30  1  0  0  0  0
  7 65  1  0  0  0  0
  8 30  1  0  0  0  0
  8 31  2  0  0  0  0
  9 30  2  0  0  0  0
  9 32  1  0  0  0  0
 10 31  1  0  0  0  0
 10 34  1  0  0  0  0
 10 71  1  0  0  0  0
 11 39  1  0  0  0  0
 11 41  1  0  0  0  0
 11 76  1  0  0  0  0
 12 13  1  0  0  0  0
 12 14  1  0  0  0  0
 12 42  1  0  0  0  0
 13 17  1  0  0  0  0
 13 43  1  0  0  0  0
 13 44  1  0  0  0  0
 14 20  1  0  0  0  0
 14 45  1  0  0  0  0
 14 46  1  0  0  0  0
 15 18  1  0  0  0  0
 15 47  1  0  0  0  0
 15 48  1  0  0  0  0
 16 19  1  0  0  0  0
 16 49  1  0  0  0  0
 16 50  1  0  0  0  0
 17 21  1  0  0  0  0
 17 51  1  0  0  0  0
 17 52  1  0  0  0  0
 18 53  1  0  0  0  0
 18 54  1  0  0  0  0
 19 55  1  0  0  0  0
 19 56  1  0  0  0  0
 20 22  2  0  0  0  0
 20 24  1  0  0  0  0
 21 22  1  0  0  0  0
 21 57  1  0  0  0  0
 21 58  1  0  0  0  0
 22 25  1  0  0  0  0
 23 28  1  0  0  0  0
 23 59  1  0  0  0  0
 23 60  1  0  0  0  0
 24 27  2  0  0  0  0
 24 61  1  0  0  0  0
 25 26  2  0  0  0  0
 26 27  1  0  0  0  0
 27 62  1  0  0  0  0
 28 63  1  0  0  0  0
 28 64  1  0  0  0  0
 29 67  1  0  0  0  0
 29 68  1  0  0  0  0
 29 69  1  0  0  0  0
 31 33  1  0  0  0  0
 32 33  2  0  0  0  0
 32 70  1  0  0  0  0
 34 35  1  0  0  0  0
 34 36  2  0  0  0  0
 35 37  2  0  0  0  0
 35 39  1  0  0  0  0
 36 38  1  0  0  0  0
 36 72  1  0  0  0  0
 37 40  1  0  0  0  0
 37 73  1  0  0  0  0
 38 40  2  0  0  0  0
 38 74  1  0  0  0  0
 40 75  1  0  0  0  0
 41 77  1  0  0  0  0
 41 78  1  0  0  0  0
 41 79  1  0  0  0  0
M  END
> <PUBCHEM_COMPOUND_CID>
71721648

> <PUBCHEM_COMPOUND_CANONICALIZED>
1

> <PUBCHEM_CACTVS_COMPLEXITY>
819

> <PUBCHEM_CACTVS_HBOND_ACCEPTOR>
9

> <PUBCHEM_CACTVS_HBOND_DONOR>
4

> <PUBCHEM_CACTVS_ROTATABLE_BOND>
9

> <PUBCHEM_CACTVS_SUBSKEYS>
AAADcfB7sAAEAAAAAAAAAAAAAAAAAAAAAAA8eIEABgAAAAAB0AAAHgIQCAAADC7hmiY/9pfIFgCoAjd3dACCiCk1I6AJ2KEtbNiOfvrE/dvVNahs0hPY6eeY2POOiAABQAAaEAAQAAKAADQgAAAAAAAAAA==

> <PUBCHEM_IUPAC_OPENEYE_NAME>
2-[[5-chloro-2-[[(6S)-6-[4-(2-hydroxyethyl)piperazin-1-yl]-1-methoxy-6,7,8,9-tetrahydro-5H-benzo[7]annulen-2-yl]amino]pyrimidin-4-yl]amino]-N-methyl-benzamide

> <PUBCHEM_IUPAC_CAS_NAME>
2-[[5-chloro-2-[[(6S)-6-[4-(2-hydroxyethyl)-1-piperazinyl]-1-methoxy-6,7,8,9-tetrahydro-5H-benzo[7]annulen-2-yl]amino]-4-pyrimidinyl]amino]-N-methylbenzamide

> <PUBCHEM_IUPAC_NAME_MARKUP>
2-[[5-chloro-2-[[(6<I>S</I>)-6-[4-(2-hydroxyethyl)piperazin-1-yl]-1-methoxy-6,7,8,9-tetrahydro-5<I>H</I>-benzo[7]annulen-2-yl]amino]pyrimidin-4-yl]amino]-<I>N</I>-methylbenzamide

> <PUBCHEM_IUPAC_NAME>
2-[[5-chloro-2-[[(6S)-6-[4-(2-hydroxyethyl)piperazin-1-yl]-1-methoxy-6,7,8,9-tetrahydro-5H-benzo[7]annulen-2-yl]amino]pyrimidin-4-yl]amino]-N-methylbenzamide

> <PUBCHEM_IUPAC_SYSTEMATIC_NAME>
2-[[5-chloranyl-2-[[(6S)-6-[4-(2-hydroxyethyl)piperazin-1-yl]-1-methoxy-6,7,8,9-tetrahydro-5H-benzo[7]annulen-2-yl]amino]pyrimidin-4-yl]amino]-N-methyl-benzamide

> <PUBCHEM_IUPAC_TRADITIONAL_NAME>
2-[[5-chloro-2-[[(6S)-6-[4-(2-hydroxyethyl)piperazino]-1-methoxy-6,7,8,9-tetrahydro-5H-benzocyclohepten-2-yl]amino]pyrimidin-4-yl]amino]-N-methyl-benzamide

> <PUBCHEM_IUPAC_INCHI>
InChI=1S/C30H38ClN7O3/c1-32-29(40)23-7-3-4-9-25(23)34-28-24(31)19-33-30(36-28)35-26-11-10-20-18-21(6-5-8-22(20)27(26)41-2)38-14-12-37(13-15-38)16-17-39/h3-4,7,9-11,19,21,39H,5-6,8,12-18H2,1-2H3,(H,32,40)(H2,33,34,35,36)/t21-/m0/s1

> <PUBCHEM_IUPAC_INCHIKEY>
BCSHRERPHLTPEE-NRFANRHFSA-N

> <PUBCHEM_XLOGP3_AA>
4.6

> <PUBCHEM_EXACT_MASS>
579.2724658

> <PUBCHEM_MOLECULAR_FORMULA>
C30H38ClN7O3

> <PUBCHEM_MOLECULAR_WEIGHT>
580.1

> <PUBCHEM_OPENEYE_CAN_SMILES>
CNC(=O)C1=CC=CC=C1NC2=NC(=NC=C2Cl)NC3=C(C4=C(CC(CCC4)N5CCN(CC5)CCO)C=C3)OC

> <PUBCHEM_OPENEYE_ISO_SMILES>
CNC(=O)C1=CC=CC=C1NC2=NC(=NC=C2Cl)NC3=C(C4=C(C[C@H](CCC4)N5CCN(CC5)CCO)C=C3)OC

> <PUBCHEM_CACTVS_TPSA>
115

> <PUBCHEM_MONOISOTOPIC_WEIGHT>
579.2724658

> <PUBCHEM_TOTAL_CHARGE>
0

> <PUBCHEM_HEAVY_ATOM_COUNT>
41

> <PUBCHEM_ATOM_DEF_STEREO_COUNT>
1

> <PUBCHEM_ATOM_UDEF_STEREO_COUNT>
0

> <PUBCHEM_BOND_DEF_STEREO_COUNT>
0

> <PUBCHEM_BOND_UDEF_STEREO_COUNT>
0

> <PUBCHEM_ISOTOPIC_ATOM_COUNT>
0

> <PUBCHEM_COMPONENT_COUNT>
1

> <PUBCHEM_CACTVS_TAUTO_COUNT>
-1

> <PUBCHEM_COORDINATE_TYPE>
1
5
255

> <PUBCHEM_BONDANNOTATIONS>
20  22  8
20  24  8
22  25  8
24  27  8
25  26  8
26  27  8
31  33  8
32  33  8
34  35  8
34  36  8
35  37  8
36  38  8
37  40  8
38  40  8
12  5  5
8  30  8
8  31  8
9  30  8
9  32  8

$$$$
78323434
  -OEChem-11282412102D

 80 84  0     0  0  0  0  0  0999 V2000
    2.0000    6.6900    0.0000 O   0  0  0  0  0  0  0  0  0  0  0  0
    9.7942    2.1900    0.0000 O   0  0  0  0  0  0  0  0  0  0  0  0
   10.6603   -2.3100    0.0000 O   0  0  0  0  0  0  0  0  0  0  0  0
   10.6603   -4.3100    0.0000 O   0  0  0  0  0  0  0  0  0  0  0  0
   13.8474   -5.8096    0.0000 O   0  0  0  0  0  0  0  0  0  0  0  0
    9.7942   -6.8100    0.0000 O   0  0  0  0  0  0  0  0  0  0  0  0
    3.7320    4.6900    0.0000 N   0  0  0  0  0  0  0  0  0  0  0  0
    8.9282    0.6900    0.0000 N   0  0  0  0  0  0  0  0  0  0  0  0
   14.2045   -4.1147    0.0000 N   0  0  0  0  0  0  0  0  0  0  0  0
   10.6603    0.6900    0.0000 N   0  0  0  0  0  0  0  0  0  0  0  0
   15.4937   -5.2715    0.0000 N   0  0  0  0  0  0  0  0  0  0  0  0
    5.4641    3.6900    0.0000 C   0  0  0  0  0  0  0  0  0  0  0  0
    4.5981    3.1900    0.0000 C   0  0  0  0  0  0  0  0  0  0  0  0
    5.4641    4.6900    0.0000 C   0  0  0  0  0  0  0  0  0  0  0  0
    3.7320    3.6900    0.0000 C   0  0  0  0  0  0  0  0  0  0  0  0
    4.5981    5.1900    0.0000 C   0  0  0  0  0  0  0  0  0  0  0  0
    6.3301    3.1900    0.0000 C   0  0  0  0  0  0  0  0  0  0  0  0
    2.8660    5.1900    0.0000 C   0  0  0  0  0  0  0  0  0  0  0  0
    6.3301    2.1900    0.0000 C   0  0  0  0  0  0  0  0  0  0  0  0
    7.1962    3.6900    0.0000 C   0  0  0  0  0  0  0  0  0  0  0  0
    2.8660    6.1900    0.0000 C   0  0  0  0  0  0  0  0  0  0  0  0
    7.1962    1.6900    0.0000 C   0  0  0  0  0  0  0  0  0  0  0  0
    8.0622    3.1900    0.0000 C   0  0  0  0  0  0  0  0  0  0  0  0
    8.0622    2.1900    0.0000 C   0  0  0  0  0  0  0  0  0  0  0  0
    8.9282    1.6900    0.0000 C   0  0  0  0  0  0  0  0  0  0  0  0
    9.7942    0.1900    0.0000 C   0  0  0  0  0  0  0  0  0  0  0  0
   13.2583   -3.8100    0.0000 C   0  0  0  0  0  0  0  0  0  0  0  0
   13.2583   -2.8100    0.0000 C   0  0  0  0  0  0  0  0  0  0  0  0
   11.5263   -2.8100    0.0000 C   0  0  0  0  0  0  0  0  0  0  0  0
   12.3923   -4.3100    0.0000 C   0  0  0  0  0  0  0  0  0  0  0  0
   12.3923   -2.3100    0.0000 C   0  0  0  0  0  0  0  0  0  0  0  0
   11.5263   -3.8100    0.0000 C   0  0  0  0  0  0  0  0  0  0  0  0
   14.2045   -2.5053    0.0000 C   0  0  0  0  0  0  0  0  0  0  0  0
    9.7942   -0.8100    0.0000 C   0  0  0  0  0  0  0  0  0  0  0  0
   14.7882   -3.3100    0.0000 C   0  0  0  0  0  0  0  0  0  0  0  0
   10.6603   -1.3100    0.0000 C   0  0  0  0  0  0  0  0  0  0  0  0
   14.5152   -5.0652    0.0000 C   0  0  0  0  0  0  0  0  0  0  0  0
   11.5263   -0.8100    0.0000 C   0  0  0  0  0  0  0  0  0  0  0  0
   11.5263    0.1900    0.0000 C   0  0  0  0  0  0  0  0  0  0  0  0
   10.6603   -5.3100    0.0000 C   0  0  0  0  0  0  0  0  0  0  0  0
    9.7942   -5.8100    0.0000 C   0  0  0  0  0  0  0  0  0  0  0  0
   15.8044   -6.2220    0.0000 C   0  0  0  0  0  0  0  0  0  0  0  0
    8.9282   -7.3100    0.0000 C   0  0  0  0  0  0  0  0  0  0  0  0
    5.4641    3.0700    0.0000 H   0  0  0  0  0  0  0  0  0  0  0  0
    4.1996    2.7151    0.0000 H   0  0  0  0  0  0  0  0  0  0  0  0
    4.9966    2.7151    0.0000 H   0  0  0  0  0  0  0  0  0  0  0  0
    6.0747    4.5823    0.0000 H   0  0  0  0  0  0  0  0  0  0  0  0
    5.6762    5.2726    0.0000 H   0  0  0  0  0  0  0  0  0  0  0  0
    3.1215    3.7977    0.0000 H   0  0  0  0  0  0  0  0  0  0  0  0
    3.5200    3.1074    0.0000 H   0  0  0  0  0  0  0  0  0  0  0  0
    4.9966    5.6650    0.0000 H   0  0  0  0  0  0  0  0  0  0  0  0
    4.1996    5.6650    0.0000 H   0  0  0  0  0  0  0  0  0  0  0  0
    2.2554    5.2977    0.0000 H   0  0  0  0  0  0  0  0  0  0  0  0
    2.6540    4.6074    0.0000 H   0  0  0  0  0  0  0  0  0  0  0  0
    5.7932    1.8800    0.0000 H   0  0  0  0  0  0  0  0  0  0  0  0
    7.1962    4.3100    0.0000 H   0  0  0  0  0  0  0  0  0  0  0  0
    3.4766    6.0823    0.0000 H   0  0  0  0  0  0  0  0  0  0  0  0
    3.0781    6.7726    0.0000 H   0  0  0  0  0  0  0  0  0  0  0  0
    7.1962    1.0700    0.0000 H   0  0  0  0  0  0  0  0  0  0  0  0
    8.5991    3.5000    0.0000 H   0  0  0  0  0  0  0  0  0  0  0  0
    2.0000    7.3100    0.0000 H   0  0  0  0  0  0  0  0  0  0  0  0
    8.3913    0.3800    0.0000 H   0  0  0  0  0  0  0  0  0  0  0  0
   12.3923   -4.9300    0.0000 H   0  0  0  0  0  0  0  0  0  0  0  0
   12.3923   -1.6900    0.0000 H   0  0  0  0  0  0  0  0  0  0  0  0
   14.3972   -1.9159    0.0000 H   0  0  0  0  0  0  0  0  0  0  0  0
   15.4082   -3.3100    0.0000 H   0  0  0  0  0  0  0  0  0  0  0  0
    9.2573   -1.1200    0.0000 H   0  0  0  0  0  0  0  0  0  0  0  0
   12.0632   -1.1200    0.0000 H   0  0  0  0  0  0  0  0  0  0  0  0
   12.0632    0.5000    0.0000 H   0  0  0  0  0  0  0  0  0  0  0  0
   10.8723   -5.8926    0.0000 H   0  0  0  0  0  0  0  0  0  0  0  0
   11.2708   -5.2023    0.0000 H   0  0  0  0  0  0  0  0  0  0  0  0
   15.9078   -4.8100    0.0000 H   0  0  0  0  0  0  0  0  0  0  0  0
    9.5822   -5.2274    0.0000 H   0  0  0  0  0  0  0  0  0  0  0  0
    9.1836   -5.9177    0.0000 H   0  0  0  0  0  0  0  0  0  0  0  0
   15.2151   -6.4146    0.0000 H   0  0  0  0  0  0  0  0  0  0  0  0
   15.9970   -6.8113    0.0000 H   0  0  0  0  0  0  0  0  0  0  0  0
   16.3937   -6.0294    0.0000 H   0  0  0  0  0  0  0  0  0  0  0  0
    8.6182   -6.7731    0.0000 H   0  0  0  0  0  0  0  0  0  0  0  0
    8.3913   -7.6200    0.0000 H   0  0  0  0  0  0  0  0  0  0  0  0
    9.2382   -7.8469    0.0000 H   0  0  0  0  0  0  0  0  0  0  0  0
  1 21  1  0  0  0  0
  1 61  1  0  0  0  0
  2 25  2  0  0  0  0
  3 29  1  0  0  0  0
  3 36  1  0  0  0  0
  4 32  1  0  0  0  0
  4 40  1  0  0  0  0
  5 37  2  0  0  0  0
  6 41  1  0  0  0  0
  6 43  1  0  0  0  0
  7 15  1  0  0  0  0
  7 16  1  0  0  0  0
  7 18  1  0  0  0  0
  8 25  1  0  0  0  0
  8 26  1  0  0  0  0
  8 62  1  0  0  0  0
  9 27  1  0  0  0  0
  9 35  1  0  0  0  0
  9 37  1  0  0  0  0
 10 26  2  0  0  0  0
 10 39  1  0  0  0  0
 11 37  1  0  0  0  0
 11 42  1  0  0  0  0
 11 72  1  0  0  0  0
 12 13  1  0  0  0  0
 12 14  1  0  0  0  0
 12 17  1  0  0  0  0
 12 44  1  0  0  0  0
 13 15  1  0  0  0  0
 13 45  1  0  0  0  0
 13 46  1  0  0  0  0
 14 16  1  0  0  0  0
 14 47  1  0  0  0  0
 14 48  1  0  0  0  0
 15 49  1  0  0  0  0
 15 50  1  0  0  0  0
 16 51  1  0  0  0  0
 16 52  1  0  0  0  0
 17 19  2  0  0  0  0
 17 20  1  0  0  0  0
 18 21  1  0  0  0  0
 18 53  1  0  0  0  0
 18 54  1  0  0  0  0
 19 22  1  0  0  0  0
 19 55  1  0  0  0  0
 20 23  2  0  0  0  0
 20 56  1  0  0  0  0
 21 57  1  0  0  0  0
 21 58  1  0  0  0  0
 22 24  2  0  0  0  0
 22 59  1  0  0  0  0
 23 24  1  0  0  0  0
 23 60  1  0  0  0  0
 24 25  1  0  0  0  0
 26 34  1  0  0  0  0
 27 28  1  0  0  0  0
 27 30  2  0  0  0  0
 28 31  2  0  0  0  0
 28 33  1  0  0  0  0
 29 31  1  0  0  0  0
 29 32  2  0  0  0  0
 30 32  1  0  0  0  0
 30 63  1  0  0  0  0
 31 64  1  0  0  0  0
 33 35  2  0  0  0  0
 33 65  1  0  0  0  0
 34 36  2  0  0  0  0
 34 67  1  0  0  0  0
 35 66  1  0  0  0  0
 36 38  1  0  0  0  0
 38 39  2  0  0  0  0
 38 68  1  0  0  0  0
 39 69  1  0  0  0  0
 40 41  1  0  0  0  0
 40 70  1  0  0  0  0
 40 71  1  0  0  0  0
 41 73  1  0  0  0  0
 41 74  1  0  0  0  0
 42 75  1  0  0  0  0
 42 76  1  0  0  0  0
 42 77  1  0  0  0  0
 43 78  1  0  0  0  0
 43 79  1  0  0  0  0
 43 80  1  0  0  0  0
M  END
> <PUBCHEM_COMPOUND_CID>
78323434

> <PUBCHEM_COMPOUND_CANONICALIZED>
1

> <PUBCHEM_CACTVS_COMPLEXITY>
880

> <PUBCHEM_CACTVS_HBOND_ACCEPTOR>
8

> <PUBCHEM_CACTVS_HBOND_DONOR>
3

> <PUBCHEM_CACTVS_ROTATABLE_BOND>
11

> <PUBCHEM_CACTVS_SUBSKEYS>
AAADcfB/uAAAAAAAAAAAAAAAAAAAAWAAAAA8eIEAAAAAAFgB/AAAHgAQCAAADQzhngY/9vPMFgCoAzd3dACCiCk1IiAJ2KE+7NiPNvLEvZuGOSru1xva6ae42POO4EABAgACQADAgAIEAASAAAAAAAAAAA==

> <PUBCHEM_IUPAC_OPENEYE_NAME>
5-[[2-[[4-[1-(2-hydroxyethyl)-4-piperidyl]benzoyl]amino]-4-pyridyl]oxy]-6-(2-methoxyethoxy)-N-methyl-indole-1-carboxamide

> <PUBCHEM_IUPAC_CAS_NAME>
5-[[2-[[[4-[1-(2-hydroxyethyl)-4-piperidinyl]phenyl]-oxomethyl]amino]-4-pyridinyl]oxy]-6-(2-methoxyethoxy)-N-methyl-1-indolecarboxamide

> <PUBCHEM_IUPAC_NAME_MARKUP>
5-[2-[[4-[1-(2-hydroxyethyl)piperidin-4-yl]benzoyl]amino]pyridin-4-yl]oxy-6-(2-methoxyethoxy)-<I>N</I>-methylindole-1-carboxamide

> <PUBCHEM_IUPAC_NAME>
5-[2-[[4-[1-(2-hydroxyethyl)piperidin-4-yl]benzoyl]amino]pyridin-4-yl]oxy-6-(2-methoxyethoxy)-N-methylindole-1-carboxamide

> <PUBCHEM_IUPAC_SYSTEMATIC_NAME>
5-[2-[[4-[1-(2-hydroxyethyl)piperidin-4-yl]phenyl]carbonylamino]pyridin-4-yl]oxy-6-(2-methoxyethoxy)-N-methyl-indole-1-carboxamide

> <PUBCHEM_IUPAC_TRADITIONAL_NAME>
5-[[2-[[4-[1-(2-hydroxyethyl)-4-piperidyl]benzoyl]amino]-4-pyridyl]oxy]-6-(2-methoxyethoxy)-N-methyl-indole-1-carboxamide

> <PUBCHEM_IUPAC_INCHI>
InChI=1S/C32H37N5O6/c1-33-32(40)37-14-10-25-19-29(28(21-27(25)37)42-18-17-41-2)43-26-7-11-34-30(20-26)35-31(39)24-5-3-22(4-6-24)23-8-12-36(13-9-23)15-16-38/h3-7,10-11,14,19-21,23,38H,8-9,12-13,15-18H2,1-2H3,(H,33,40)(H,34,35,39)

> <PUBCHEM_IUPAC_INCHIKEY>
IBHOLSBDZMIPPT-UHFFFAOYSA-N

> <PUBCHEM_XLOGP3_AA>
3.1

> <PUBCHEM_EXACT_MASS>
587.27438392

> <PUBCHEM_MOLECULAR_FORMULA>
C32H37N5O6

> <PUBCHEM_MOLECULAR_WEIGHT>
587.7

> <PUBCHEM_OPENEYE_CAN_SMILES>
CNC(=O)N1C=CC2=CC(=C(C=C21)OCCOC)OC3=CC(=NC=C3)NC(=O)C4=CC=C(C=C4)C5CCN(CC5)CCO

> <PUBCHEM_OPENEYE_ISO_SMILES>
CNC(=O)N1C=CC2=CC(=C(C=C21)OCCOC)OC3=CC(=NC=C3)NC(=O)C4=CC=C(C=C4)C5CCN(CC5)CCO

> <PUBCHEM_CACTVS_TPSA>
127

> <PUBCHEM_MONOISOTOPIC_WEIGHT>
587.27438392

> <PUBCHEM_TOTAL_CHARGE>
0

> <PUBCHEM_HEAVY_ATOM_COUNT>
43

> <PUBCHEM_ATOM_DEF_STEREO_COUNT>
0

> <PUBCHEM_ATOM_UDEF_STEREO_COUNT>
0

> <PUBCHEM_BOND_DEF_STEREO_COUNT>
0

> <PUBCHEM_BOND_UDEF_STEREO_COUNT>
0

> <PUBCHEM_ISOTOPIC_ATOM_COUNT>
0

> <PUBCHEM_COMPONENT_COUNT>
1

> <PUBCHEM_CACTVS_TAUTO_COUNT>
-1

> <PUBCHEM_COORDINATE_TYPE>
1
5
255

> <PUBCHEM_BONDANNOTATIONS>
10  26  8
10  39  8
17  19  8
17  20  8
19  22  8
20  23  8
22  24  8
23  24  8
26  34  8
27  28  8
27  30  8
28  31  8
28  33  8
29  31  8
29  32  8
30  32  8
33  35  8
34  36  8
36  38  8
38  39  8
9  27  8
9  35  8

$$$$
118649391
  -OEChem-11282412102D

 57 61  0     1  0  0  0  0  0999 V2000
    7.7935    3.1808    0.0000 F   0  0  0  0  0  0  0  0  0  0  0  0
    7.0792    6.5705    0.0000 F   0  0  0  0  0  0  0  0  0  0  0  0
    8.2021   -3.1781    0.0000 O   0  0  0  0  0  0  0  0  0  0  0  0
    3.4030   -1.9374    0.0000 O   0  0  0  0  0  0  0  0  0  0  0  0
    6.4579    4.6694    0.0000 O   0  0  0  0  0  0  0  0  0  0  0  0
    5.2152   -0.7421    0.0000 N   0  0  0  0  0  0  0  0  0  0  0  0
    6.4792   -3.0000    0.0000 N   0  0  0  0  0  0  0  0  0  0  0  0
    2.5369   -0.4374    0.0000 N   0  0  0  0  0  0  0  0  0  0  0  0
    2.5369    0.5626    0.0000 N   0  0  0  0  0  0  0  0  0  0  0  0
    3.4030    2.0626    0.0000 N   0  0  0  0  0  0  0  0  0  0  0  0
    5.5259   -1.6926    0.0000 C   0  0  2  0  0  0  0  0  0  0  0  0
    4.9395   -2.5027    0.0000 C   0  0  0  0  0  0  0  0  0  0  0  0
    6.4775   -2.0000    0.0000 C   0  0  0  0  0  0  0  0  0  0  0  0
    5.5287   -3.3107    0.0000 C   0  0  0  0  0  0  0  0  0  0  0  0
    4.2690   -0.4374    0.0000 C   0  0  0  0  0  0  0  0  0  0  0  0
    5.7988    0.0626    0.0000 C   0  0  0  0  0  0  0  0  0  0  0  0
    4.2690    0.5626    0.0000 C   0  0  0  0  0  0  0  0  0  0  0  0
    5.2152    0.8674    0.0000 C   0  0  0  0  0  0  0  0  0  0  0  0
    7.2892   -3.5864    0.0000 C   0  0  0  0  0  0  0  0  0  0  0  0
    3.4030   -0.9374    0.0000 C   0  0  0  0  0  0  0  0  0  0  0  0
    5.5259    1.8179    0.0000 C   0  0  0  0  0  0  0  0  0  0  0  0
    3.4030    1.0626    0.0000 C   0  0  0  0  0  0  0  0  0  0  0  0
    4.8580    2.5622    0.0000 C   0  0  0  0  0  0  0  0  0  0  0  0
    6.5044    2.0241    0.0000 C   0  0  0  0  0  0  0  0  0  0  0  0
    7.1864   -4.5811    0.0000 C   0  0  0  0  0  0  0  0  0  0  0  0
    5.1687    3.5127    0.0000 C   0  0  0  0  0  0  0  0  0  0  0  0
    6.8150    2.9746    0.0000 C   0  0  0  0  0  0  0  0  0  0  0  0
    6.1472    3.7189    0.0000 C   0  0  0  0  0  0  0  0  0  0  0  0
    7.0836   -5.5758    0.0000 C   0  0  0  0  0  0  0  0  0  0  0  0
    6.9808   -6.5705    0.0000 C   0  0  0  0  0  0  0  0  0  0  0  0
    7.4364    4.8757    0.0000 C   0  0  0  0  0  0  0  0  0  0  0  0
    8.1042    4.1314    0.0000 C   0  0  0  0  0  0  0  0  0  0  0  0
    7.7470    5.8262    0.0000 C   0  0  0  0  0  0  0  0  0  0  0  0
    9.0827    4.3376    0.0000 C   0  0  0  0  0  0  0  0  0  0  0  0
    8.7255    6.0324    0.0000 C   0  0  0  0  0  0  0  0  0  0  0  0
    9.3934    5.2881    0.0000 C   0  0  0  0  0  0  0  0  0  0  0  0
    4.9133   -1.5967    0.0000 H   0  0  0  0  0  0  0  0  0  0  0  0
    4.4780   -2.0886    0.0000 H   0  0  0  0  0  0  0  0  0  0  0  0
    4.4794   -2.9183    0.0000 H   0  0  0  0  0  0  0  0  0  0  0  0
    7.0942   -2.0637    0.0000 H   0  0  0  0  0  0  0  0  0  0  0  0
    6.6053   -1.3933    0.0000 H   0  0  0  0  0  0  0  0  0  0  0  0
    4.9923   -3.6216    0.0000 H   0  0  0  0  0  0  0  0  0  0  0  0
    5.7818   -3.8766    0.0000 H   0  0  0  0  0  0  0  0  0  0  0  0
    6.4188    0.0626    0.0000 H   0  0  0  0  0  0  0  0  0  0  0  0
    2.0000   -0.7474    0.0000 H   0  0  0  0  0  0  0  0  0  0  0  0
    4.2514    2.4343    0.0000 H   0  0  0  0  0  0  0  0  0  0  0  0
    6.9184    1.5626    0.0000 H   0  0  0  0  0  0  0  0  0  0  0  0
    2.8660    2.3726    0.0000 H   0  0  0  0  0  0  0  0  0  0  0  0
    3.9399    2.3726    0.0000 H   0  0  0  0  0  0  0  0  0  0  0  0
    4.7546    3.9742    0.0000 H   0  0  0  0  0  0  0  0  0  0  0  0
    7.4217    3.1025    0.0000 H   0  0  0  0  0  0  0  0  0  0  0  0
    6.3641   -6.5067    0.0000 H   0  0  0  0  0  0  0  0  0  0  0  0
    6.9171   -7.1872    0.0000 H   0  0  0  0  0  0  0  0  0  0  0  0
    7.5975   -6.6342    0.0000 H   0  0  0  0  0  0  0  0  0  0  0  0
    9.4968    3.8761    0.0000 H   0  0  0  0  0  0  0  0  0  0  0  0
    8.9181    6.6217    0.0000 H   0  0  0  0  0  0  0  0  0  0  0  0
   10.0000    5.4159    0.0000 H   0  0  0  0  0  0  0  0  0  0  0  0
  1 32  1  0  0  0  0
  2 33  1  0  0  0  0
  3 19  2  0  0  0  0
  4 20  2  0  0  0  0
  5 28  1  0  0  0  0
  5 31  1  0  0  0  0
 11  6  1  1  0  0  0
  6 15  1  0  0  0  0
  6 16  1  0  0  0  0
  7 13  1  0  0  0  0
  7 14  1  0  0  0  0
  7 19  1  0  0  0  0
  8  9  1  0  0  0  0
  8 20  1  0  0  0  0
  8 45  1  0  0  0  0
  9 22  2  0  0  0  0
 10 22  1  0  0  0  0
 10 48  1  0  0  0  0
 10 49  1  0  0  0  0
 11 12  1  0  0  0  0
 11 13  1  0  0  0  0
 11 37  1  0  0  0  0
 12 14  1  0  0  0  0
 12 38  1  0  0  0  0
 12 39  1  0  0  0  0
 13 40  1  0  0  0  0
 13 41  1  0  0  0  0
 14 42  1  0  0  0  0
 14 43  1  0  0  0  0
 15 17  2  0  0  0  0
 15 20  1  0  0  0  0
 16 18  2  0  0  0  0
 16 44  1  0  0  0  0
 17 18  1  0  0  0  0
 17 22  1  0  0  0  0
 18 21  1  0  0  0  0
 19 25  1  0  0  0  0
 21 23  2  0  0  0  0
 21 24  1  0  0  0  0
 23 26  1  0  0  0  0
 23 46  1  0  0  0  0
 24 27  2  0  0  0  0
 24 47  1  0  0  0  0
 25 29  3  0  0  0  0
 26 28  2  0  0  0  0
 26 50  1  0  0  0  0
 27 28  1  0  0  0  0
 27 51  1  0  0  0  0
 29 30  1  0  0  0  0
 30 52  1  0  0  0  0
 30 53  1  0  0  0  0
 30 54  1  0  0  0  0
 31 32  2  0  0  0  0
 31 33  1  0  0  0  0
 32 34  1  0  0  0  0
 33 35  2  0  0  0  0
 34 36  2  0  0  0  0
 34 55  1  0  0  0  0
 35 36  1  0  0  0  0
 35 56  1  0  0  0  0
 36 57  1  0  0  0  0
M  END
> <PUBCHEM_COMPOUND_CID>
118649391

> <PUBCHEM_COMPOUND_CANONICALIZED>
1

> <PUBCHEM_CACTVS_COMPLEXITY>
946

> <PUBCHEM_CACTVS_HBOND_ACCEPTOR>
6

> <PUBCHEM_CACTVS_HBOND_DONOR>
2

> <PUBCHEM_CACTVS_ROTATABLE_BOND>
4

> <PUBCHEM_CACTVS_SUBSKEYS>
AAADceB7sYAAAAAAAAAAAAAAAAAAAWLAAAAwYIAAAAAAAEAB0AAAHwAYAAAADCzBngw/hpNuFADoEzd3dACSiCA3ICAa2CGuTNgMZnLE9buWOSjkzhHI6QecyfCOoAAAAAAAAABAAAAAAAAAAAAAAAAAAA==

> <PUBCHEM_IUPAC_OPENEYE_NAME>
4-amino-1-[(3R)-1-but-2-ynoylpyrrolidin-3-yl]-3-[4-(2,6-difluorophenoxy)phenyl]-6H-pyrrolo[2,3-d]pyridazin-7-one

> <PUBCHEM_IUPAC_CAS_NAME>
4-amino-3-[4-(2,6-difluorophenoxy)phenyl]-1-[(3R)-1-(1-oxobut-2-ynyl)-3-pyrrolidinyl]-6H-pyrrolo[2,3-d]pyridazin-7-one

> <PUBCHEM_IUPAC_NAME_MARKUP>
4-amino-1-[(3<I>R</I>)-1-but-2-ynoylpyrrolidin-3-yl]-3-[4-(2,6-difluorophenoxy)phenyl]-6<I>H</I>-pyrrolo[2,3-d]pyridazin-7-one

> <PUBCHEM_IUPAC_NAME>
4-amino-1-[(3R)-1-but-2-ynoylpyrrolidin-3-yl]-3-[4-(2,6-difluorophenoxy)phenyl]-6H-pyrrolo[2,3-d]pyridazin-7-one

> <PUBCHEM_IUPAC_SYSTEMATIC_NAME>
4-azanyl-3-[4-[2,6-bis(fluoranyl)phenoxy]phenyl]-1-[(3R)-1-but-2-ynoylpyrrolidin-3-yl]-6H-pyrrolo[2,3-d]pyridazin-7-one

> <PUBCHEM_IUPAC_TRADITIONAL_NAME>
4-amino-1-[(3R)-1-but-2-ynoylpyrrolidin-3-yl]-3-[4-(2,6-difluorophenoxy)phenyl]-6H-pyrrolo[2,3-d]pyridazin-7-one

> <PUBCHEM_IUPAC_INCHI>
InChI=1S/C26H21F2N5O3/c1-2-4-21(34)32-12-11-16(13-32)33-14-18(22-23(33)26(35)31-30-25(22)29)15-7-9-17(10-8-15)36-24-19(27)5-3-6-20(24)28/h3,5-10,14,16H,11-13H2,1H3,(H2,29,30)(H,31,35)/t16-/m1/s1

> <PUBCHEM_IUPAC_INCHIKEY>
DNPOFZXZJJDQLB-MRXNPFEDSA-N

> <PUBCHEM_XLOGP3_AA>
3.1

> <PUBCHEM_EXACT_MASS>
489.16124587

> <PUBCHEM_MOLECULAR_FORMULA>
C26H21F2N5O3

> <PUBCHEM_MOLECULAR_WEIGHT>
489.5

> <PUBCHEM_OPENEYE_CAN_SMILES>
CC#CC(=O)N1CCC(C1)N2C=C(C3=C2C(=O)NN=C3N)C4=CC=C(C=C4)OC5=C(C=CC=C5F)F

> <PUBCHEM_OPENEYE_ISO_SMILES>
CC#CC(=O)N1CC[C@H](C1)N2C=C(C3=C2C(=O)NN=C3N)C4=CC=C(C=C4)OC5=C(C=CC=C5F)F

> <PUBCHEM_CACTVS_TPSA>
102

> <PUBCHEM_MONOISOTOPIC_WEIGHT>
489.16124587

> <PUBCHEM_TOTAL_CHARGE>
0

> <PUBCHEM_HEAVY_ATOM_COUNT>
36

> <PUBCHEM_ATOM_DEF_STEREO_COUNT>
1

> <PUBCHEM_ATOM_UDEF_STEREO_COUNT>
0

> <PUBCHEM_BOND_DEF_STEREO_COUNT>
0

> <PUBCHEM_BOND_UDEF_STEREO_COUNT>
0

> <PUBCHEM_ISOTOPIC_ATOM_COUNT>
0

> <PUBCHEM_COMPONENT_COUNT>
1

> <PUBCHEM_CACTVS_TAUTO_COUNT>
-1

> <PUBCHEM_COORDINATE_TYPE>
1
5
255

> <PUBCHEM_BONDANNOTATIONS>
15  17  8
15  20  8
16  18  8
17  18  8
17  22  8
21  23  8
21  24  8
23  26  8
24  27  8
26  28  8
27  28  8
31  32  8
31  33  8
32  34  8
33  35  8
34  36  8
35  36  8
11  6  5
6  15  8
6  16  8
8  20  8
8  9  8
9  22  8

$$$$
118912975
  -OEChem-11282412102D

 66 69  0     0  0  0  0  0  0999 V2000
    8.4993    3.1810    0.0000 O   0  0  0  0  0  0  0  0  0  0  0  0
    9.2136   -0.2086    0.0000 O   0  0  0  0  0  0  0  0  0  0  0  0
    7.8314    3.9253    0.0000 O   0  0  0  0  0  0  0  0  0  0  0  0
    4.6783   -4.5440    0.0000 N   0  0  0  0  0  0  0  0  0  0  0  0
    5.9674   -1.7778    0.0000 N   0  0  0  0  0  0  0  0  0  0  0  0
    7.2566   -0.6210    0.0000 N   0  0  0  0  0  0  0  0  0  0  0  0
   10.7669    4.5440    0.0000 N   0  0  0  0  0  0  0  0  0  0  0  0
    5.6103   -0.0830    0.0000 N   0  0  0  0  0  0  0  0  0  0  0  0
    6.5422    2.7686    0.0000 N   0  0  0  0  0  0  0  0  0  0  0  0
    3.7320   -3.2393    0.0000 C   0  0  0  0  0  0  0  0  0  0  0  0
    3.7320   -4.2393    0.0000 C   0  0  0  0  0  0  0  0  0  0  0  0
    4.6783   -2.9345    0.0000 C   0  0  0  0  0  0  0  0  0  0  0  0
    5.2619   -3.7393    0.0000 C   0  0  0  0  0  0  0  0  0  0  0  0
    4.9889   -1.9840    0.0000 C   0  0  0  0  0  0  0  0  0  0  0  0
    2.8660   -2.7393    0.0000 C   0  0  0  0  0  0  0  0  0  0  0  0
    2.8660   -4.7393    0.0000 C   0  0  0  0  0  0  0  0  0  0  0  0
    4.9889   -5.4945    0.0000 C   0  0  0  0  0  0  0  0  0  0  0  0
    2.0000   -3.2393    0.0000 C   0  0  0  0  0  0  0  0  0  0  0  0
    2.0000   -4.2393    0.0000 C   0  0  0  0  0  0  0  0  0  0  0  0
    7.5673    0.3295    0.0000 C   0  0  0  0  0  0  0  0  0  0  0  0
    4.3211   -1.2397    0.0000 C   0  0  0  0  0  0  0  0  0  0  0  0
    8.1886    2.2305    0.0000 C   0  0  0  0  0  0  0  0  0  0  0  0
    9.7884    4.3378    0.0000 C   0  0  0  0  0  0  0  0  0  0  0  0
    7.2101    2.0243    0.0000 C   0  0  0  0  0  0  0  0  0  0  0  0
    9.4778    3.3872    0.0000 C   0  0  0  0  0  0  0  0  0  0  0  0
    6.2781   -0.8273    0.0000 C   0  0  0  0  0  0  0  0  0  0  0  0
    8.5458    0.5357    0.0000 C   0  0  0  0  0  0  0  0  0  0  0  0
    6.8994    1.0738    0.0000 C   0  0  0  0  0  0  0  0  0  0  0  0
    8.8564    1.4862    0.0000 C   0  0  0  0  0  0  0  0  0  0  0  0
    4.6318   -0.2892    0.0000 C   0  0  0  0  0  0  0  0  0  0  0  0
   11.0776    5.4945    0.0000 C   0  0  0  0  0  0  0  0  0  0  0  0
   11.4348    3.7997    0.0000 C   0  0  0  0  0  0  0  0  0  0  0  0
    6.8529    3.7191    0.0000 C   0  0  0  0  0  0  0  0  0  0  0  0
   10.1921   -0.0024    0.0000 C   0  0  0  0  0  0  0  0  0  0  0  0
    6.1851    4.4634    0.0000 C   0  0  0  0  0  0  0  0  0  0  0  0
    6.4957    5.4139    0.0000 C   0  0  0  0  0  0  0  0  0  0  0  0
    5.8819   -3.7393    0.0000 H   0  0  0  0  0  0  0  0  0  0  0  0
    2.8660   -2.1193    0.0000 H   0  0  0  0  0  0  0  0  0  0  0  0
    2.8660   -5.3593    0.0000 H   0  0  0  0  0  0  0  0  0  0  0  0
    4.3996   -5.6871    0.0000 H   0  0  0  0  0  0  0  0  0  0  0  0
    5.1815   -6.0838    0.0000 H   0  0  0  0  0  0  0  0  0  0  0  0
    5.5783   -5.3019    0.0000 H   0  0  0  0  0  0  0  0  0  0  0  0
    1.4631   -2.9293    0.0000 H   0  0  0  0  0  0  0  0  0  0  0  0
    1.4631   -4.5493    0.0000 H   0  0  0  0  0  0  0  0  0  0  0  0
    3.7144   -1.3676    0.0000 H   0  0  0  0  0  0  0  0  0  0  0  0
    9.7679    4.9574    0.0000 H   0  0  0  0  0  0  0  0  0  0  0  0
    9.1746    4.4251    0.0000 H   0  0  0  0  0  0  0  0  0  0  0  0
    9.4983    2.7676    0.0000 H   0  0  0  0  0  0  0  0  0  0  0  0
   10.0916    3.2999    0.0000 H   0  0  0  0  0  0  0  0  0  0  0  0
    6.2928    0.9459    0.0000 H   0  0  0  0  0  0  0  0  0  0  0  0
    7.6707   -1.0825    0.0000 H   0  0  0  0  0  0  0  0  0  0  0  0
    9.4631    1.6141    0.0000 H   0  0  0  0  0  0  0  0  0  0  0  0
    4.2177    0.1723    0.0000 H   0  0  0  0  0  0  0  0  0  0  0  0
    5.9356    2.6407    0.0000 H   0  0  0  0  0  0  0  0  0  0  0  0
   11.6669    5.3019    0.0000 H   0  0  0  0  0  0  0  0  0  0  0  0
   11.2702    6.0838    0.0000 H   0  0  0  0  0  0  0  0  0  0  0  0
   10.4883    5.6871    0.0000 H   0  0  0  0  0  0  0  0  0  0  0  0
   10.9733    3.3856    0.0000 H   0  0  0  0  0  0  0  0  0  0  0  0
   11.8488    3.3382    0.0000 H   0  0  0  0  0  0  0  0  0  0  0  0
   11.8962    4.2138    0.0000 H   0  0  0  0  0  0  0  0  0  0  0  0
   10.3200   -0.6091    0.0000 H   0  0  0  0  0  0  0  0  0  0  0  0
   10.7988    0.1255    0.0000 H   0  0  0  0  0  0  0  0  0  0  0  0
   10.0643    0.6043    0.0000 H   0  0  0  0  0  0  0  0  0  0  0  0
    5.5784    4.3356    0.0000 H   0  0  0  0  0  0  0  0  0  0  0  0
    7.1024    5.5418    0.0000 H   0  0  0  0  0  0  0  0  0  0  0  0
    6.0817    5.8754    0.0000 H   0  0  0  0  0  0  0  0  0  0  0  0
  1 22  1  0  0  0  0
  1 25  1  0  0  0  0
  2 27  1  0  0  0  0
  2 34  1  0  0  0  0
  3 33  2  0  0  0  0
  4 11  1  0  0  0  0
  4 13  1  0  0  0  0
  4 17  1  0  0  0  0
  5 14  2  0  0  0  0
  5 26  1  0  0  0  0
  6 20  1  0  0  0  0
  6 26  1  0  0  0  0
  6 51  1  0  0  0  0
  7 23  1  0  0  0  0
  7 31  1  0  0  0  0
  7 32  1  0  0  0  0
  8 26  2  0  0  0  0
  8 30  1  0  0  0  0
  9 24  1  0  0  0  0
  9 33  1  0  0  0  0
  9 54  1  0  0  0  0
 10 11  1  0  0  0  0
 10 12  1  0  0  0  0
 10 15  2  0  0  0  0
 11 16  2  0  0  0  0
 12 13  2  0  0  0  0
 12 14  1  0  0  0  0
 13 37  1  0  0  0  0
 14 21  1  0  0  0  0
 15 18  1  0  0  0  0
 15 38  1  0  0  0  0
 16 19  1  0  0  0  0
 16 39  1  0  0  0  0
 17 40  1  0  0  0  0
 17 41  1  0  0  0  0
 17 42  1  0  0  0  0
 18 19  2  0  0  0  0
 18 43  1  0  0  0  0
 19 44  1  0  0  0  0
 20 27  1  0  0  0  0
 20 28  2  0  0  0  0
 21 30  2  0  0  0  0
 21 45  1  0  0  0  0
 22 24  2  0  0  0  0
 22 29  1  0  0  0  0
 23 25  1  0  0  0  0
 23 46  1  0  0  0  0
 23 47  1  0  0  0  0
 24 28  1  0  0  0  0
 25 48  1  0  0  0  0
 25 49  1  0  0  0  0
 27 29  2  0  0  0  0
 28 50  1  0  0  0  0
 29 52  1  0  0  0  0
 30 53  1  0  0  0  0
 31 55  1  0  0  0  0
 31 56  1  0  0  0  0
 31 57  1  0  0  0  0
 32 58  1  0  0  0  0
 32 59  1  0  0  0  0
 32 60  1  0  0  0  0
 33 35  1  0  0  0  0
 34 61  1  0  0  0  0
 34 62  1  0  0  0  0
 34 63  1  0  0  0  0
 35 36  2  0  0  0  0
 35 64  1  0  0  0  0
 36 65  1  0  0  0  0
 36 66  1  0  0  0  0
M  END
> <PUBCHEM_COMPOUND_CID>
118912975

> <PUBCHEM_COMPOUND_CANONICALIZED>
1

> <PUBCHEM_CACTVS_COMPLEXITY>
724

> <PUBCHEM_CACTVS_HBOND_ACCEPTOR>
7

> <PUBCHEM_CACTVS_HBOND_DONOR>
2

> <PUBCHEM_CACTVS_ROTATABLE_BOND>
10

> <PUBCHEM_CACTVS_SUBSKEYS>
AAADceB7sAAAAAAAAAAAAAAAAAAAAWAAAAA8YIAAAAAAAFgB/AAAHgAQAAAADAzhngY/1vfMFACoAzV3dACCiCkxIqAJ2CA/bNiOL+LE+duHPCjt1BfY6Kew4MwOgEAACAQCEAAAgAAQCAQgAAAAAAAAAA==

> <PUBCHEM_IUPAC_OPENEYE_NAME>
N-[2-[2-(dimethylamino)ethoxy]-4-methoxy-5-[[4-(1-methylindol-3-yl)pyrimidin-2-yl]amino]phenyl]prop-2-enamide

> <PUBCHEM_IUPAC_CAS_NAME>
N-[2-[2-(dimethylamino)ethoxy]-4-methoxy-5-[[4-(1-methyl-3-indolyl)-2-pyrimidinyl]amino]phenyl]-2-propenamide

> <PUBCHEM_IUPAC_NAME_MARKUP>
<I>N</I>-[2-[2-(dimethylamino)ethoxy]-4-methoxy-5-[[4-(1-methylindol-3-yl)pyrimidin-2-yl]amino]phenyl]prop-2-enamide

> <PUBCHEM_IUPAC_NAME>
N-[2-[2-(dimethylamino)ethoxy]-4-methoxy-5-[[4-(1-methylindol-3-yl)pyrimidin-2-yl]amino]phenyl]prop-2-enamide

> <PUBCHEM_IUPAC_SYSTEMATIC_NAME>
N-[2-[2-(dimethylamino)ethoxy]-4-methoxy-5-[[4-(1-methylindol-3-yl)pyrimidin-2-yl]amino]phenyl]prop-2-enamide

> <PUBCHEM_IUPAC_TRADITIONAL_NAME>
N-[2-[2-(dimethylamino)ethoxy]-4-methoxy-5-[[4-(1-methylindol-3-yl)pyrimidin-2-yl]amino]phenyl]acrylamide

> <PUBCHEM_IUPAC_INCHI>
InChI=1S/C27H30N6O3/c1-6-26(34)29-22-15-21(24(35-5)16-25(22)36-14-13-32(2)3)31-27-28-12-11-20(30-27)19-17-33(4)23-10-8-7-9-18(19)23/h6-12,15-17H,1,13-14H2,2-5H3,(H,29,34)(H,28,30,31)

> <PUBCHEM_IUPAC_INCHIKEY>
BPMZUKYFIDPLEA-UHFFFAOYSA-N

> <PUBCHEM_XLOGP3_AA>
3.6

> <PUBCHEM_EXACT_MASS>
486.23793884

> <PUBCHEM_MOLECULAR_FORMULA>
C27H30N6O3

> <PUBCHEM_MOLECULAR_WEIGHT>
486.6

> <PUBCHEM_OPENEYE_CAN_SMILES>
CN1C=C(C2=CC=CC=C21)C3=NC(=NC=C3)NC4=CC(=C(C=C4OC)OCCN(C)C)NC(=O)C=C

> <PUBCHEM_OPENEYE_ISO_SMILES>
CN1C=C(C2=CC=CC=C21)C3=NC(=NC=C3)NC4=CC(=C(C=C4OC)OCCN(C)C)NC(=O)C=C

> <PUBCHEM_CACTVS_TPSA>
93.5

> <PUBCHEM_MONOISOTOPIC_WEIGHT>
486.23793884

> <PUBCHEM_TOTAL_CHARGE>
0

> <PUBCHEM_HEAVY_ATOM_COUNT>
36

> <PUBCHEM_ATOM_DEF_STEREO_COUNT>
0

> <PUBCHEM_ATOM_UDEF_STEREO_COUNT>
0

> <PUBCHEM_BOND_DEF_STEREO_COUNT>
0

> <PUBCHEM_BOND_UDEF_STEREO_COUNT>
0

> <PUBCHEM_ISOTOPIC_ATOM_COUNT>
0

> <PUBCHEM_COMPONENT_COUNT>
1

> <PUBCHEM_CACTVS_TAUTO_COUNT>
-1

> <PUBCHEM_COORDINATE_TYPE>
1
5
255

> <PUBCHEM_BONDANNOTATIONS>
10  11  8
10  12  8
10  15  8
11  16  8
12  13  8
14  21  8
15  18  8
16  19  8
18  19  8
20  27  8
20  28  8
21  30  8
22  24  8
22  29  8
24  28  8
27  29  8
4  11  8
4  13  8
5  14  8
5  26  8
8  26  8
8  30  8

$$$$
135611162
  -OEChem-11282412102D

 65 67  0     1  0  0  0  0  0999 V2000
    4.5370    3.6892    0.0000 F   0  0  0  0  0  0  0  0  0  0  0  0
    8.0174    0.6546    0.0000 O   0  0  0  0  0  0  0  0  0  0  0  0
    6.8074   12.8493    0.0000 O   0  0  0  0  0  0  0  0  0  0  0  0
    9.4054   12.3493    0.0000 O   0  0  0  0  0  0  0  0  0  0  0  0
    8.5394   13.8493    0.0000 O   0  0  0  0  0  0  0  0  0  0  0  0
    0.5369    6.6734    0.0000 O   0  0  0  0  0  0  0  0  0  0  0  0
   11.0923    5.5846    0.0000 N   0  0  0  0  0  0  0  0  0  0  0  0
   12.0923    7.3166    0.0000 N   0  0  0  0  0  0  0  0  0  0  0  0
    8.1205    3.6433    0.0000 N   0  0  0  0  0  0  0  0  0  0  0  0
    8.9252    2.2495    0.0000 N   0  0  0  0  0  0  0  0  0  0  0  0
    6.2854    0.6546    0.0000 N   0  0  0  0  0  0  0  0  0  0  0  0
    6.2854    3.6546    0.0000 N   0  0  0  0  0  0  0  0  0  0  0  0
   10.5923    6.4506    0.0000 C   0  0  0  0  0  0  0  0  0  0  0  0
   12.0923    5.5846    0.0000 C   0  0  0  0  0  0  0  0  0  0  0  0
   11.0923    7.3166    0.0000 C   0  0  0  0  0  0  0  0  0  0  0  0
   12.5923    6.4506    0.0000 C   0  0  0  0  0  0  0  0  0  0  0  0
   10.5923    4.7186    0.0000 C   0  0  0  0  0  0  0  0  0  0  0  0
   12.5923    8.1827    0.0000 C   0  0  0  0  0  0  0  0  0  0  0  0
    9.5923    4.7186    0.0000 C   0  0  0  0  0  0  0  0  0  0  0  0
    9.0923    3.8526    0.0000 C   0  0  0  0  0  0  0  0  0  0  0  0
   11.0923    3.8526    0.0000 C   0  0  0  0  0  0  0  0  0  0  0  0
    9.5923    2.9865    0.0000 C   0  0  0  0  0  0  0  0  0  0  0  0
   10.5923    2.9865    0.0000 C   0  0  0  0  0  0  0  0  0  0  0  0
    8.0174    2.6546    0.0000 C   0  0  0  0  0  0  0  0  0  0  0  0
    7.1514    2.1546    0.0000 C   0  0  0  0  0  0  0  0  0  0  0  0
    6.2854    2.6546    0.0000 C   0  0  0  0  0  0  0  0  0  0  0  0
    5.4193    2.1546    0.0000 C   0  0  0  0  0  0  0  0  0  0  0  0
    7.1514    1.1546    0.0000 C   0  0  0  0  0  0  0  0  0  0  0  0
    5.4193    1.1546    0.0000 C   0  0  0  0  0  0  0  0  0  0  0  0
    4.5254    2.6893    0.0000 C   0  0  0  0  0  0  0  0  0  0  0  0
    4.5254    0.6200    0.0000 C   0  0  0  0  0  0  0  0  0  0  0  0
    3.6193    2.1754    0.0000 C   0  0  0  0  0  0  0  0  0  0  0  0
    3.6193    1.1338    0.0000 C   0  0  0  0  0  0  0  0  0  0  0  0
    7.6734   12.3493    0.0000 C   0  0  3  0  0  0  0  0  0  0  0  0
    7.6734   11.3493    0.0000 C   0  0  0  0  0  0  0  0  0  0  0  0
    8.5394   12.8493    0.0000 C   0  0  0  0  0  0  0  0  0  0  0  0
   10.1173    6.8492    0.0000 H   0  0  0  0  0  0  0  0  0  0  0  0
   10.1173    6.0521    0.0000 H   0  0  0  0  0  0  0  0  0  0  0  0
   11.9846    4.9740    0.0000 H   0  0  0  0  0  0  0  0  0  0  0  0
   12.6749    5.3726    0.0000 H   0  0  0  0  0  0  0  0  0  0  0  0
   11.1999    7.9272    0.0000 H   0  0  0  0  0  0  0  0  0  0  0  0
   10.5097    7.5287    0.0000 H   0  0  0  0  0  0  0  0  0  0  0  0
   13.0672    6.0521    0.0000 H   0  0  0  0  0  0  0  0  0  0  0  0
   13.0672    6.8492    0.0000 H   0  0  0  0  0  0  0  0  0  0  0  0
   13.1292    7.8727    0.0000 H   0  0  0  0  0  0  0  0  0  0  0  0
   12.9023    8.7196    0.0000 H   0  0  0  0  0  0  0  0  0  0  0  0
   12.0553    8.4927    0.0000 H   0  0  0  0  0  0  0  0  0  0  0  0
    9.2823    5.2555    0.0000 H   0  0  0  0  0  0  0  0  0  0  0  0
   11.7123    3.8526    0.0000 H   0  0  0  0  0  0  0  0  0  0  0  0
   10.9023    2.4496    0.0000 H   0  0  0  0  0  0  0  0  0  0  0  0
    7.6590    4.0574    0.0000 H   0  0  0  0  0  0  0  0  0  0  0  0
    6.2854    0.0346    0.0000 H   0  0  0  0  0  0  0  0  0  0  0  0
    4.5325    0.0000    0.0000 H   0  0  0  0  0  0  0  0  0  0  0  0
    5.7484    3.9646    0.0000 H   0  0  0  0  0  0  0  0  0  0  0  0
    6.8223    3.9646    0.0000 H   0  0  0  0  0  0  0  0  0  0  0  0
    3.0836    2.4875    0.0000 H   0  0  0  0  0  0  0  0  0  0  0  0
    3.0836    0.8217    0.0000 H   0  0  0  0  0  0  0  0  0  0  0  0
    7.1364   12.0393    0.0000 H   0  0  0  0  0  0  0  0  0  0  0  0
    7.0534   11.3493    0.0000 H   0  0  0  0  0  0  0  0  0  0  0  0
    7.6734   10.7293    0.0000 H   0  0  0  0  0  0  0  0  0  0  0  0
    8.2934   11.3493    0.0000 H   0  0  0  0  0  0  0  0  0  0  0  0
    6.2704   12.5393    0.0000 H   0  0  0  0  0  0  0  0  0  0  0  0
    9.9424   12.6593    0.0000 H   0  0  0  0  0  0  0  0  0  0  0  0
    1.0739    6.9834    0.0000 H   0  0  0  0  0  0  0  0  0  0  0  0
    0.0000    6.9834    0.0000 H   0  0  0  0  0  0  0  0  0  0  0  0
  1 30  1  0  0  0  0
  2 28  2  0  0  0  0
  3 34  1  0  0  0  0
  3 62  1  0  0  0  0
  4 36  1  0  0  0  0
  4 63  1  0  0  0  0
  5 36  2  0  0  0  0
  6 64  1  0  0  0  0
  6 65  1  0  0  0  0
  7 13  1  0  0  0  0
  7 14  1  0  0  0  0
  7 17  1  0  0  0  0
  8 15  1  0  0  0  0
  8 16  1  0  0  0  0
  8 18  1  0  0  0  0
  9 20  1  0  0  0  0
  9 24  1  0  0  0  0
  9 51  1  0  0  0  0
 10 22  1  0  0  0  0
 10 24  2  0  0  0  0
 11 28  1  0  0  0  0
 11 29  1  0  0  0  0
 11 52  1  0  0  0  0
 12 26  1  0  0  0  0
 12 54  1  0  0  0  0
 12 55  1  0  0  0  0
 13 15  1  0  0  0  0
 13 37  1  0  0  0  0
 13 38  1  0  0  0  0
 14 16  1  0  0  0  0
 14 39  1  0  0  0  0
 14 40  1  0  0  0  0
 15 41  1  0  0  0  0
 15 42  1  0  0  0  0
 16 43  1  0  0  0  0
 16 44  1  0  0  0  0
 17 19  2  0  0  0  0
 17 21  1  0  0  0  0
 18 45  1  0  0  0  0
 18 46  1  0  0  0  0
 18 47  1  0  0  0  0
 19 20  1  0  0  0  0
 19 48  1  0  0  0  0
 20 22  2  0  0  0  0
 21 23  2  0  0  0  0
 21 49  1  0  0  0  0
 22 23  1  0  0  0  0
 23 50  1  0  0  0  0
 24 25  1  0  0  0  0
 25 26  2  0  0  0  0
 25 28  1  0  0  0  0
 26 27  1  0  0  0  0
 27 29  2  0  0  0  0
 27 30  1  0  0  0  0
 29 31  1  0  0  0  0
 30 32  2  0  0  0  0
 31 33  2  0  0  0  0
 31 53  1  0  0  0  0
 32 33  1  0  0  0  0
 32 56  1  0  0  0  0
 33 57  1  0  0  0  0
 34 35  1  0  0  0  0
 34 36  1  0  0  0  0
 34 58  1  0  0  0  0
 35 59  1  0  0  0  0
 35 60  1  0  0  0  0
 35 61  1  0  0  0  0
M  END
> <PUBCHEM_COMPOUND_CID>
135611162

> <PUBCHEM_COMPOUND_CANONICALIZED>
1

> <PUBCHEM_CACTVS_COMPLEXITY>
737

> <PUBCHEM_CACTVS_HBOND_ACCEPTOR>
10

> <PUBCHEM_CACTVS_HBOND_DONOR>
6

> <PUBCHEM_CACTVS_ROTATABLE_BOND>
3

> <PUBCHEM_CACTVS_SUBSKEYS>
AAADceB7uQAAAAAAAAAAAAAAAAAAAWAAAAA8YIEAAAAAAFiB9AAAHwAQCAAADBzhnw4z2LfJkgCoAyfyfAKCgC2hEqAJmSF4dNiJeKrA2dGUZAholALJyWcQgAAOAACAAAQCACAAAQAACAQAQAAAAAAAAA==

> <PUBCHEM_IUPAC_OPENEYE_NAME>
4-amino-5-fluoro-3-[6-(4-methylpiperazin-1-yl)-1H-benzimidazol-2-yl]-1H-quinolin-2-one;2-hydroxypropanoic acid;hydrate

> <PUBCHEM_IUPAC_CAS_NAME>
4-amino-5-fluoro-3-[6-(4-methyl-1-piperazinyl)-1H-benzimidazol-2-yl]-1H-quinolin-2-one;2-hydroxypropanoic acid;hydrate

> <PUBCHEM_IUPAC_NAME_MARKUP>
4-amino-5-fluoro-3-[6-(4-methylpiperazin-1-yl)-1<I>H</I>-benzimidazol-2-yl]-1<I>H</I>-quinolin-2-one;2-hydroxypropanoic acid;hydrate

> <PUBCHEM_IUPAC_NAME>
4-amino-5-fluoro-3-[6-(4-methylpiperazin-1-yl)-1H-benzimidazol-2-yl]-1H-quinolin-2-one;2-hydroxypropanoic acid;hydrate

> <PUBCHEM_IUPAC_SYSTEMATIC_NAME>
4-azanyl-5-fluoranyl-3-[6-(4-methylpiperazin-1-yl)-1H-benzimidazol-2-yl]-1H-quinolin-2-one;2-oxidanylpropanoic acid;hydrate

> <PUBCHEM_IUPAC_TRADITIONAL_NAME>
4-amino-5-fluoro-3-[6-(4-methylpiperazino)-1H-benzimidazol-2-yl]carbostyril;lactic acid;hydrate

> <PUBCHEM_IUPAC_INCHI>
InChI=1S/C21H21FN6O.C3H6O3.H2O/c1-27-7-9-28(10-8-27)12-5-6-14-16(11-12)25-20(24-14)18-19(23)17-13(22)3-2-4-15(17)26-21(18)29;1-2(4)3(5)6;/h2-6,11H,7-10H2,1H3,(H,24,25)(H3,23,26,29);2,4H,1H3,(H,5,6);1H2

> <PUBCHEM_IUPAC_INCHIKEY>
QDPVYZNVVQQULH-UHFFFAOYSA-N

> <PUBCHEM_EXACT_MASS>
500.21834621

> <PUBCHEM_MOLECULAR_FORMULA>
C24H29FN6O5

> <PUBCHEM_MOLECULAR_WEIGHT>
500.5

> <PUBCHEM_OPENEYE_CAN_SMILES>
CC(C(=O)O)O.CN1CCN(CC1)C2=CC3=C(C=C2)N=C(N3)C4=C(C5=C(C=CC=C5F)NC4=O)N.O

> <PUBCHEM_OPENEYE_ISO_SMILES>
CC(C(=O)O)O.CN1CCN(CC1)C2=CC3=C(C=C2)N=C(N3)C4=C(C5=C(C=CC=C5F)NC4=O)N.O

> <PUBCHEM_CACTVS_TPSA>
149

> <PUBCHEM_MONOISOTOPIC_WEIGHT>
500.21834621

> <PUBCHEM_TOTAL_CHARGE>
0

> <PUBCHEM_HEAVY_ATOM_COUNT>
36

> <PUBCHEM_ATOM_DEF_STEREO_COUNT>
0

> <PUBCHEM_ATOM_UDEF_STEREO_COUNT>
1

> <PUBCHEM_BOND_DEF_STEREO_COUNT>
0

> <PUBCHEM_BOND_UDEF_STEREO_COUNT>
0

> <PUBCHEM_ISOTOPIC_ATOM_COUNT>
0

> <PUBCHEM_COMPONENT_COUNT>
3

> <PUBCHEM_CACTVS_TAUTO_COUNT>
-1

> <PUBCHEM_COORDINATE_TYPE>
1
5
255

> <PUBCHEM_BONDANNOTATIONS>
10  22  8
10  24  8
11  28  8
11  29  8
17  19  8
17  21  8
19  20  8
20  22  8
21  23  8
22  23  8
25  26  8
25  28  8
26  27  8
27  29  8
27  30  8
29  31  8
34  3  3
30  32  8
31  33  8
32  33  8
9  20  8
9  24  8

$$$$
118639856
  -OEChem-11282412102D

 77 81  0     0  0  0  0  0  0999 V2000
    8.0622    5.5000    0.0000 Cl  0  0  0  0  0  0  0  0  0  0  0  0
    9.7942    2.5000    0.0000 P   0  0  0  0  0  0  0  0  0  0  0  0
    2.8660    2.5000    0.0000 O   0  0  0  0  0  0  0  0  0  0  0  0
    8.7942    2.5000    0.0000 O   0  0  0  0  0  0  0  0  0  0  0  0
    4.5981   -0.5000    0.0000 N   0  0  0  0  0  0  0  0  0  0  0  0
    4.5981   -4.5000    0.0000 N   0  0  0  0  0  0  0  0  0  0  0  0
    4.5981    3.5000    0.0000 N   0  0  0  0  0  0  0  0  0  0  0  0
    6.3301    3.5000    0.0000 N   0  0  0  0  0  0  0  0  0  0  0  0
    5.4641    5.0000    0.0000 N   0  0  0  0  0  0  0  0  0  0  0  0
    8.0622    3.5000    0.0000 N   0  0  0  0  0  0  0  0  0  0  0  0
    4.5981   -2.5000    0.0000 C   0  0  0  0  0  0  0  0  0  0  0  0
    5.4641   -2.0000    0.0000 C   0  0  0  0  0  0  0  0  0  0  0  0
    3.7320   -2.0000    0.0000 C   0  0  0  0  0  0  0  0  0  0  0  0
    3.7320   -3.0000    0.0000 C   0  0  0  0  0  0  0  0  0  0  0  0
    5.4641   -3.0000    0.0000 C   0  0  0  0  0  0  0  0  0  0  0  0
    5.4641   -1.0000    0.0000 C   0  0  0  0  0  0  0  0  0  0  0  0
    3.7320   -1.0000    0.0000 C   0  0  0  0  0  0  0  0  0  0  0  0
    3.7320   -4.0000    0.0000 C   0  0  0  0  0  0  0  0  0  0  0  0
    5.4641   -4.0000    0.0000 C   0  0  0  0  0  0  0  0  0  0  0  0
    4.5981    0.5000    0.0000 C   0  0  0  0  0  0  0  0  0  0  0  0
    4.5981   -5.5000    0.0000 C   0  0  0  0  0  0  0  0  0  0  0  0
    3.7320    1.0000    0.0000 C   0  0  0  0  0  0  0  0  0  0  0  0
    5.4641    1.0000    0.0000 C   0  0  0  0  0  0  0  0  0  0  0  0
    3.7320    2.0000    0.0000 C   0  0  0  0  0  0  0  0  0  0  0  0
    5.4641    2.0000    0.0000 C   0  0  0  0  0  0  0  0  0  0  0  0
    4.5981    2.5000    0.0000 C   0  0  0  0  0  0  0  0  0  0  0  0
    2.0000    2.0000    0.0000 C   0  0  0  0  0  0  0  0  0  0  0  0
    5.4641    4.0000    0.0000 C   0  0  0  0  0  0  0  0  0  0  0  0
    7.1962    4.0000    0.0000 C   0  0  0  0  0  0  0  0  0  0  0  0
    9.7942    3.5000    0.0000 C   0  0  0  0  0  0  0  0  0  0  0  0
    8.9282    4.0000    0.0000 C   0  0  0  0  0  0  0  0  0  0  0  0
    6.3301    5.5000    0.0000 C   0  0  0  0  0  0  0  0  0  0  0  0
    7.1962    5.0000    0.0000 C   0  0  0  0  0  0  0  0  0  0  0  0
    9.7942    1.5000    0.0000 C   0  0  0  0  0  0  0  0  0  0  0  0
   10.7942    2.5000    0.0000 C   0  0  0  0  0  0  0  0  0  0  0  0
   10.6603    4.0000    0.0000 C   0  0  0  0  0  0  0  0  0  0  0  0
    8.9282    5.0000    0.0000 C   0  0  0  0  0  0  0  0  0  0  0  0
   10.6603    5.0000    0.0000 C   0  0  0  0  0  0  0  0  0  0  0  0
    9.7942    5.5000    0.0000 C   0  0  0  0  0  0  0  0  0  0  0  0
    5.6762   -2.5826    0.0000 H   0  0  0  0  0  0  0  0  0  0  0  0
    6.0747   -1.8923    0.0000 H   0  0  0  0  0  0  0  0  0  0  0  0
    3.1215   -1.8923    0.0000 H   0  0  0  0  0  0  0  0  0  0  0  0
    3.5200   -2.5826    0.0000 H   0  0  0  0  0  0  0  0  0  0  0  0
    3.5200   -2.4174    0.0000 H   0  0  0  0  0  0  0  0  0  0  0  0
    3.1215   -3.1077    0.0000 H   0  0  0  0  0  0  0  0  0  0  0  0
    6.0747   -3.1077    0.0000 H   0  0  0  0  0  0  0  0  0  0  0  0
    5.6762   -2.4174    0.0000 H   0  0  0  0  0  0  0  0  0  0  0  0
    6.0747   -1.1077    0.0000 H   0  0  0  0  0  0  0  0  0  0  0  0
    5.6762   -0.4174    0.0000 H   0  0  0  0  0  0  0  0  0  0  0  0
    3.5200   -0.4174    0.0000 H   0  0  0  0  0  0  0  0  0  0  0  0
    3.1215   -1.1077    0.0000 H   0  0  0  0  0  0  0  0  0  0  0  0
    3.1215   -3.8923    0.0000 H   0  0  0  0  0  0  0  0  0  0  0  0
    3.5200   -4.5826    0.0000 H   0  0  0  0  0  0  0  0  0  0  0  0
    5.6762   -4.5826    0.0000 H   0  0  0  0  0  0  0  0  0  0  0  0
    6.0747   -3.8923    0.0000 H   0  0  0  0  0  0  0  0  0  0  0  0
    3.9781   -5.5000    0.0000 H   0  0  0  0  0  0  0  0  0  0  0  0
    4.5981   -6.1200    0.0000 H   0  0  0  0  0  0  0  0  0  0  0  0
    5.2181   -5.5000    0.0000 H   0  0  0  0  0  0  0  0  0  0  0  0
    3.1951    0.6900    0.0000 H   0  0  0  0  0  0  0  0  0  0  0  0
    6.0010    0.6900    0.0000 H   0  0  0  0  0  0  0  0  0  0  0  0
    6.0010    2.3100    0.0000 H   0  0  0  0  0  0  0  0  0  0  0  0
    4.0611    3.8100    0.0000 H   0  0  0  0  0  0  0  0  0  0  0  0
    1.6900    2.5369    0.0000 H   0  0  0  0  0  0  0  0  0  0  0  0
    1.4631    1.6900    0.0000 H   0  0  0  0  0  0  0  0  0  0  0  0
    2.3100    1.4631    0.0000 H   0  0  0  0  0  0  0  0  0  0  0  0
    8.0622    2.8800    0.0000 H   0  0  0  0  0  0  0  0  0  0  0  0
    6.3301    6.1200    0.0000 H   0  0  0  0  0  0  0  0  0  0  0  0
    9.1742    1.5000    0.0000 H   0  0  0  0  0  0  0  0  0  0  0  0
    9.7942    0.8800    0.0000 H   0  0  0  0  0  0  0  0  0  0  0  0
   10.4142    1.5000    0.0000 H   0  0  0  0  0  0  0  0  0  0  0  0
   10.7942    1.8800    0.0000 H   0  0  0  0  0  0  0  0  0  0  0  0
   11.4142    2.5000    0.0000 H   0  0  0  0  0  0  0  0  0  0  0  0
   10.7942    3.1200    0.0000 H   0  0  0  0  0  0  0  0  0  0  0  0
   11.1972    3.6900    0.0000 H   0  0  0  0  0  0  0  0  0  0  0  0
    8.3913    5.3100    0.0000 H   0  0  0  0  0  0  0  0  0  0  0  0
   11.1972    5.3100    0.0000 H   0  0  0  0  0  0  0  0  0  0  0  0
    9.7942    6.1200    0.0000 H   0  0  0  0  0  0  0  0  0  0  0  0
  1 33  1  0  0  0  0
  2  4  2  0  0  0  0
  2 30  1  0  0  0  0
  2 34  1  0  0  0  0
  2 35  1  0  0  0  0
  3 24  1  0  0  0  0
  3 27  1  0  0  0  0
  5 16  1  0  0  0  0
  5 17  1  0  0  0  0
  5 20  1  0  0  0  0
  6 18  1  0  0  0  0
  6 19  1  0  0  0  0
  6 21  1  0  0  0  0
  7 26  1  0  0  0  0
  7 28  1  0  0  0  0
  7 62  1  0  0  0  0
  8 28  1  0  0  0  0
  8 29  2  0  0  0  0
  9 28  2  0  0  0  0
  9 32  1  0  0  0  0
 10 29  1  0  0  0  0
 10 31  1  0  0  0  0
 10 66  1  0  0  0  0
 11 12  1  0  0  0  0
 11 13  1  0  0  0  0
 11 14  1  0  0  0  0
 11 15  1  0  0  0  0
 12 16  1  0  0  0  0
 12 40  1  0  0  0  0
 12 41  1  0  0  0  0
 13 17  1  0  0  0  0
 13 42  1  0  0  0  0
 13 43  1  0  0  0  0
 14 18  1  0  0  0  0
 14 44  1  0  0  0  0
 14 45  1  0  0  0  0
 15 19  1  0  0  0  0
 15 46  1  0  0  0  0
 15 47  1  0  0  0  0
 16 48  1  0  0  0  0
 16 49  1  0  0  0  0
 17 50  1  0  0  0  0
 17 51  1  0  0  0  0
 18 52  1  0  0  0  0
 18 53  1  0  0  0  0
 19 54  1  0  0  0  0
 19 55  1  0  0  0  0
 20 22  2  0  0  0  0
 20 23  1  0  0  0  0
 21 56  1  0  0  0  0
 21 57  1  0  0  0  0
 21 58  1  0  0  0  0
 22 24  1  0  0  0  0
 22 59  1  0  0  0  0
 23 25  2  0  0  0  0
 23 60  1  0  0  0  0
 24 26  2  0  0  0  0
 25 26  1  0  0  0  0
 25 61  1  0  0  0  0
 27 63  1  0  0  0  0
 27 64  1  0  0  0  0
 27 65  1  0  0  0  0
 29 33  1  0  0  0  0
 30 31  1  0  0  0  0
 30 36  2  0  0  0  0
 31 37  2  0  0  0  0
 32 33  2  0  0  0  0
 32 67  1  0  0  0  0
 34 68  1  0  0  0  0
 34 69  1  0  0  0  0
 34 70  1  0  0  0  0
 35 71  1  0  0  0  0
 35 72  1  0  0  0  0
 35 73  1  0  0  0  0
 36 38  1  0  0  0  0
 36 74  1  0  0  0  0
 37 39  1  0  0  0  0
 37 75  1  0  0  0  0
 38 39  2  0  0  0  0
 38 76  1  0  0  0  0
 39 77  1  0  0  0  0
M  END
> <PUBCHEM_COMPOUND_CID>
118639856

> <PUBCHEM_COMPOUND_CANONICALIZED>
1

> <PUBCHEM_CACTVS_COMPLEXITY>
829

> <PUBCHEM_CACTVS_HBOND_ACCEPTOR>
8

> <PUBCHEM_CACTVS_HBOND_DONOR>
2

> <PUBCHEM_CACTVS_ROTATABLE_BOND>
7

> <PUBCHEM_CACTVS_SUBSKEYS>
AAADcfB7sAIEAAAAAAAAAAAAAAAAAAAAAAA8eLECAAAAAAAB0AAAHgoQACAADg7BkiY/9pfIFCCgQDZnZACCiCkxI6AJ2CAvbJiOLuLE+dvFNChu0BvY6CeQUAMLAACAAgAAEAAAAQAEAAAgAAAAAAAAAA==

> <PUBCHEM_IUPAC_OPENEYE_NAME>
5-chloro-N4-(2-dimethylphosphorylphenyl)-N2-[2-methoxy-4-(9-methyl-3,9-diazaspiro[5.5]undecan-3-yl)phenyl]pyrimidine-2,4-diamine

> <PUBCHEM_IUPAC_CAS_NAME>
5-chloro-N4-(2-dimethylphosphorylphenyl)-N2-[2-methoxy-4-(9-methyl-3,9-diazaspiro[5.5]undecan-3-yl)phenyl]pyrimidine-2,4-diamine

> <PUBCHEM_IUPAC_NAME_MARKUP>
5-chloro-4-<I>N</I>-(2-dimethylphosphorylphenyl)-2-<I>N</I>-[2-methoxy-4-(9-methyl-3,9-diazaspiro[5.5]undecan-3-yl)phenyl]pyrimidine-2,4-diamine

> <PUBCHEM_IUPAC_NAME>
5-chloro-4-N-(2-dimethylphosphorylphenyl)-2-N-[2-methoxy-4-(9-methyl-3,9-diazaspiro[5.5]undecan-3-yl)phenyl]pyrimidine-2,4-diamine

> <PUBCHEM_IUPAC_SYSTEMATIC_NAME>
5-chloranyl-N4-(2-dimethylphosphorylphenyl)-N2-[2-methoxy-4-(9-methyl-3,9-diazaspiro[5.5]undecan-3-yl)phenyl]pyrimidine-2,4-diamine

> <PUBCHEM_IUPAC_TRADITIONAL_NAME>
[5-chloro-4-(2-dimethylphosphorylanilino)pyrimidin-2-yl]-[2-methoxy-4-(9-methyl-3,9-diazaspiro[5.5]undecan-3-yl)phenyl]amine

> <PUBCHEM_IUPAC_INCHI>
InChI=1S/C29H38ClN6O2P/c1-35-15-11-29(12-16-35)13-17-36(18-14-29)21-9-10-23(25(19-21)38-2)33-28-31-20-22(30)27(34-28)32-24-7-5-6-8-26(24)39(3,4)37/h5-10,19-20H,11-18H2,1-4H3,(H2,31,32,33,34)

> <PUBCHEM_IUPAC_INCHIKEY>
ZPCCNHQDFZCULN-UHFFFAOYSA-N

> <PUBCHEM_XLOGP3_AA>
5.4

> <PUBCHEM_EXACT_MASS>
568.2482392

> <PUBCHEM_MOLECULAR_FORMULA>
C29H38ClN6O2P

> <PUBCHEM_MOLECULAR_WEIGHT>
569.1

> <PUBCHEM_OPENEYE_CAN_SMILES>
CN1CCC2(CC1)CCN(CC2)C3=CC(=C(C=C3)NC4=NC=C(C(=N4)NC5=CC=CC=C5P(=O)(C)C)Cl)OC

> <PUBCHEM_OPENEYE_ISO_SMILES>
CN1CCC2(CC1)CCN(CC2)C3=CC(=C(C=C3)NC4=NC=C(C(=N4)NC5=CC=CC=C5P(=O)(C)C)Cl)OC

> <PUBCHEM_CACTVS_TPSA>
82.6

> <PUBCHEM_MONOISOTOPIC_WEIGHT>
568.2482392

> <PUBCHEM_TOTAL_CHARGE>
0

> <PUBCHEM_HEAVY_ATOM_COUNT>
39

> <PUBCHEM_ATOM_DEF_STEREO_COUNT>
0

> <PUBCHEM_ATOM_UDEF_STEREO_COUNT>
0

> <PUBCHEM_BOND_DEF_STEREO_COUNT>
0

> <PUBCHEM_BOND_UDEF_STEREO_COUNT>
0

> <PUBCHEM_ISOTOPIC_ATOM_COUNT>
0

> <PUBCHEM_COMPONENT_COUNT>
1

> <PUBCHEM_CACTVS_TAUTO_COUNT>
-1

> <PUBCHEM_COORDINATE_TYPE>
1
5
255

> <PUBCHEM_BONDANNOTATIONS>
20  22  8
20  23  8
22  24  8
23  25  8
24  26  8
25  26  8
29  33  8
30  31  8
30  36  8
31  37  8
32  33  8
36  38  8
37  39  8
38  39  8
8  28  8
8  29  8
9  28  8
9  32  8

$$$$
16129168
  -OEChem-11282412102D

 57 60  0     0  0  0  0  0  0999 V2000
    2.0000    0.3372    0.0000 O   0  0  0  0  0  0  0  0  0  0  0  0
    7.1962    1.3372    0.0000 O   0  0  0  0  0  0  0  0  0  0  0  0
    7.1962    3.3372    0.0000 O   0  0  0  0  0  0  0  0  0  0  0  0
    3.7320    1.3372    0.0000 N   0  0  0  0  0  0  0  0  0  0  0  0
   10.6766    0.3026    0.0000 N   0  0  0  0  0  0  0  0  0  0  0  0
   10.6882    3.3718    0.0000 N   0  0  0  0  0  0  0  0  0  0  0  0
   11.5942    1.8163    0.0000 N   0  0  0  0  0  0  0  0  0  0  0  0
    4.5981    1.8372    0.0000 C   0  0  0  0  0  0  0  0  0  0  0  0
    3.7320    0.3372    0.0000 C   0  0  0  0  0  0  0  0  0  0  0  0
    2.8660    1.8372    0.0000 C   0  0  0  0  0  0  0  0  0  0  0  0
    5.4641    1.3372    0.0000 C   0  0  0  0  0  0  0  0  0  0  0  0
    2.8660   -0.1628    0.0000 C   0  0  0  0  0  0  0  0  0  0  0  0
    2.0000    1.3372    0.0000 C   0  0  0  0  0  0  0  0  0  0  0  0
    6.3301    1.8372    0.0000 C   0  0  0  0  0  0  0  0  0  0  0  0
    8.0622    1.8372    0.0000 C   0  0  0  0  0  0  0  0  0  0  0  0
    9.7942    1.8372    0.0000 C   0  0  0  0  0  0  0  0  0  0  0  0
    8.9282    1.3372    0.0000 C   0  0  0  0  0  0  0  0  0  0  0  0
    8.0622    2.8372    0.0000 C   0  0  0  0  0  0  0  0  0  0  0  0
    9.7942    2.8372    0.0000 C   0  0  0  0  0  0  0  0  0  0  0  0
    8.9282    3.3372    0.0000 C   0  0  0  0  0  0  0  0  0  0  0  0
   10.6882    1.3025    0.0000 C   0  0  0  0  0  0  0  0  0  0  0  0
   11.5368   -0.2074    0.0000 C   0  0  0  0  0  0  0  0  0  0  0  0
   11.5942    2.8580    0.0000 C   0  0  0  0  0  0  0  0  0  0  0  0
   11.5252   -1.2074    0.0000 C   0  0  0  0  0  0  0  0  0  0  0  0
   12.4085    0.2825    0.0000 C   0  0  0  0  0  0  0  0  0  0  0  0
    7.1962    4.3372    0.0000 C   0  0  0  0  0  0  0  0  0  0  0  0
   12.3854   -1.7173    0.0000 C   0  0  0  0  0  0  0  0  0  0  0  0
   13.2687   -0.2274    0.0000 C   0  0  0  0  0  0  0  0  0  0  0  0
   13.2572   -1.2274    0.0000 C   0  0  0  0  0  0  0  0  0  0  0  0
   12.3739   -2.7173    0.0000 C   0  0  0  0  0  0  0  0  0  0  0  0
   12.3623   -3.7172    0.0000 C   0  0  0  0  0  0  0  0  0  0  0  0
    4.9966    2.3121    0.0000 H   0  0  0  0  0  0  0  0  0  0  0  0
    4.1996    2.3121    0.0000 H   0  0  0  0  0  0  0  0  0  0  0  0
    3.9441   -0.2455    0.0000 H   0  0  0  0  0  0  0  0  0  0  0  0
    4.3426    0.4448    0.0000 H   0  0  0  0  0  0  0  0  0  0  0  0
    3.2646    2.3121    0.0000 H   0  0  0  0  0  0  0  0  0  0  0  0
    2.4675    2.3121    0.0000 H   0  0  0  0  0  0  0  0  0  0  0  0
    5.0656    0.8622    0.0000 H   0  0  0  0  0  0  0  0  0  0  0  0
    5.8626    0.8622    0.0000 H   0  0  0  0  0  0  0  0  0  0  0  0
    2.4675   -0.6378    0.0000 H   0  0  0  0  0  0  0  0  0  0  0  0
    3.2646   -0.6378    0.0000 H   0  0  0  0  0  0  0  0  0  0  0  0
    1.7880    1.9198    0.0000 H   0  0  0  0  0  0  0  0  0  0  0  0
    1.3894    1.2295    0.0000 H   0  0  0  0  0  0  0  0  0  0  0  0
    6.7287    2.3121    0.0000 H   0  0  0  0  0  0  0  0  0  0  0  0
    5.9316    2.3121    0.0000 H   0  0  0  0  0  0  0  0  0  0  0  0
    8.9282    0.7172    0.0000 H   0  0  0  0  0  0  0  0  0  0  0  0
    8.9282    3.9572    0.0000 H   0  0  0  0  0  0  0  0  0  0  0  0
   10.1361   -0.0012    0.0000 H   0  0  0  0  0  0  0  0  0  0  0  0
   12.1300    3.1700    0.0000 H   0  0  0  0  0  0  0  0  0  0  0  0
   10.9847   -1.5111    0.0000 H   0  0  0  0  0  0  0  0  0  0  0  0
   12.4157    0.9025    0.0000 H   0  0  0  0  0  0  0  0  0  0  0  0
    7.8162    4.3372    0.0000 H   0  0  0  0  0  0  0  0  0  0  0  0
    7.1962    4.9572    0.0000 H   0  0  0  0  0  0  0  0  0  0  0  0
    6.5762    4.3372    0.0000 H   0  0  0  0  0  0  0  0  0  0  0  0
   13.8092    0.0763    0.0000 H   0  0  0  0  0  0  0  0  0  0  0  0
   13.7905   -1.5436    0.0000 H   0  0  0  0  0  0  0  0  0  0  0  0
   12.3551   -4.3372    0.0000 H   0  0  0  0  0  0  0  0  0  0  0  0
  1 12  1  0  0  0  0
  1 13  1  0  0  0  0
  2 14  1  0  0  0  0
  2 15  1  0  0  0  0
  3 18  1  0  0  0  0
  3 26  1  0  0  0  0
  4  8  1  0  0  0  0
  4  9  1  0  0  0  0
  4 10  1  0  0  0  0
  5 21  1  0  0  0  0
  5 22  1  0  0  0  0
  5 48  1  0  0  0  0
  6 19  1  0  0  0  0
  6 23  2  0  0  0  0
  7 21  2  0  0  0  0
  7 23  1  0  0  0  0
  8 11  1  0  0  0  0
  8 32  1  0  0  0  0
  8 33  1  0  0  0  0
  9 12  1  0  0  0  0
  9 34  1  0  0  0  0
  9 35  1  0  0  0  0
 10 13  1  0  0  0  0
 10 36  1  0  0  0  0
 10 37  1  0  0  0  0
 11 14  1  0  0  0  0
 11 38  1  0  0  0  0
 11 39  1  0  0  0  0
 12 40  1  0  0  0  0
 12 41  1  0  0  0  0
 13 42  1  0  0  0  0
 13 43  1  0  0  0  0
 14 44  1  0  0  0  0
 14 45  1  0  0  0  0
 15 17  1  0  0  0  0
 15 18  2  0  0  0  0
 16 17  2  0  0  0  0
 16 19  1  0  0  0  0
 16 21  1  0  0  0  0
 17 46  1  0  0  0  0
 18 20  1  0  0  0  0
 19 20  2  0  0  0  0
 20 47  1  0  0  0  0
 22 24  1  0  0  0  0
 22 25  2  0  0  0  0
 23 49  1  0  0  0  0
 24 27  2  0  0  0  0
 24 50  1  0  0  0  0
 25 28  1  0  0  0  0
 25 51  1  0  0  0  0
 26 52  1  0  0  0  0
 26 53  1  0  0  0  0
 26 54  1  0  0  0  0
 27 29  1  0  0  0  0
 27 30  1  0  0  0  0
 28 29  2  0  0  0  0
 28 55  1  0  0  0  0
 29 56  1  0  0  0  0
 30 31  3  0  0  0  0
 31 57  1  0  0  0  0
M  END
> <PUBCHEM_COMPOUND_CID>
16129168

> <PUBCHEM_COMPOUND_CANONICALIZED>
1

> <PUBCHEM_CACTVS_COMPLEXITY>
591

> <PUBCHEM_CACTVS_HBOND_ACCEPTOR>
7

> <PUBCHEM_CACTVS_HBOND_DONOR>
1

> <PUBCHEM_CACTVS_ROTATABLE_BOND>
9

> <PUBCHEM_CACTVS_SUBSKEYS>
AAADceB7sAAAAAAAAAAAAAAAAAAAAAAAAAA8eIEAAAAAAACx9AAAHgAQAAAADAzhngY39vfIFADgGyZjZAiCiCkxIqAJ2CA+7JiPLuLE+duHPCru0Bva6Cew0BMOIEABQgACQABAgAKEAASAAAAAAAAAAA==

> <PUBCHEM_IUPAC_OPENEYE_NAME>
N-(3-ethynylphenyl)-7-methoxy-6-(3-morpholinopropoxy)quinazolin-4-amine

> <PUBCHEM_IUPAC_CAS_NAME>
N-(3-ethynylphenyl)-7-methoxy-6-[3-(4-morpholinyl)propoxy]-4-quinazolinamine

> <PUBCHEM_IUPAC_NAME_MARKUP>
<I>N</I>-(3-ethynylphenyl)-7-methoxy-6-(3-morpholin-4-ylpropoxy)quinazolin-4-amine

> <PUBCHEM_IUPAC_NAME>
N-(3-ethynylphenyl)-7-methoxy-6-(3-morpholin-4-ylpropoxy)quinazolin-4-amine

> <PUBCHEM_IUPAC_SYSTEMATIC_NAME>
N-(3-ethynylphenyl)-7-methoxy-6-(3-morpholin-4-ylpropoxy)quinazolin-4-amine

> <PUBCHEM_IUPAC_TRADITIONAL_NAME>
(3-ethynylphenyl)-[7-methoxy-6-(3-morpholinopropoxy)quinazolin-4-yl]amine

> <PUBCHEM_IUPAC_INCHI>
InChI=1S/C24H26N4O3/c1-3-18-6-4-7-19(14-18)27-24-20-15-23(22(29-2)16-21(20)25-17-26-24)31-11-5-8-28-9-12-30-13-10-28/h1,4,6-7,14-17H,5,8-13H2,2H3,(H,25,26,27)

> <PUBCHEM_IUPAC_INCHIKEY>
WBKHQQZRHCECKK-UHFFFAOYSA-N

> <PUBCHEM_XLOGP3_AA>
3.6

> <PUBCHEM_EXACT_MASS>
418.20049070

> <PUBCHEM_MOLECULAR_FORMULA>
C24H26N4O3

> <PUBCHEM_MOLECULAR_WEIGHT>
418.5

> <PUBCHEM_OPENEYE_CAN_SMILES>
COC1=C(C=C2C(=C1)N=CN=C2NC3=CC=CC(=C3)C#C)OCCCN4CCOCC4

> <PUBCHEM_OPENEYE_ISO_SMILES>
COC1=C(C=C2C(=C1)N=CN=C2NC3=CC=CC(=C3)C#C)OCCCN4CCOCC4

> <PUBCHEM_CACTVS_TPSA>
68.7

> <PUBCHEM_MONOISOTOPIC_WEIGHT>
418.20049070

> <PUBCHEM_TOTAL_CHARGE>
0

> <PUBCHEM_HEAVY_ATOM_COUNT>
31

> <PUBCHEM_ATOM_DEF_STEREO_COUNT>
0

> <PUBCHEM_ATOM_UDEF_STEREO_COUNT>
0

> <PUBCHEM_BOND_DEF_STEREO_COUNT>
0

> <PUBCHEM_BOND_UDEF_STEREO_COUNT>
0

> <PUBCHEM_ISOTOPIC_ATOM_COUNT>
0

> <PUBCHEM_COMPONENT_COUNT>
1

> <PUBCHEM_CACTVS_TAUTO_COUNT>
-1

> <PUBCHEM_COORDINATE_TYPE>
1
5
255

> <PUBCHEM_BONDANNOTATIONS>
15  17  8
15  18  8
16  17  8
16  19  8
16  21  8
18  20  8
19  20  8
22  24  8
22  25  8
24  27  8
25  28  8
27  29  8
28  29  8
6  19  8
6  23  8
7  21  8
7  23  8

$$$$
56847547
  -OEChem-11282412102D

 85 89  0     0  0  0  0  0  0999 V2000
    1.4328   14.2077    0.0000 S   0  0  0  0  0  0  0  0  0  0  0  0
    5.8977    4.6200    0.0000 S   0  0  0  0  0  0  0  0  0  0  0  0
   10.9814   15.3932    0.0000 O   0  0  0  0  0  0  0  0  0  0  0  0
   11.6027   17.2943    0.0000 O   0  0  0  0  0  0  0  0  0  0  0  0
    3.4640   14.6940    0.0000 O   0  0  0  0  0  0  0  0  0  0  0  0
    5.8977    5.6200    0.0000 O   0  0  0  0  0  0  0  0  0  0  0  0
    6.8977    4.6200    0.0000 O   0  0  0  0  0  0  0  0  0  0  0  0
    4.8977    4.6200    0.0000 O   0  0  0  0  0  0  0  0  0  0  0  0
    7.3780   15.5189    0.0000 N   0  0  0  0  0  0  0  0  0  0  0  0
    9.3350   15.9313    0.0000 N   0  0  0  0  0  0  0  0  0  0  0  0
    3.8212   12.9992    0.0000 N   0  0  0  0  0  0  0  0  0  0  0  0
    4.4513    9.5491    0.0000 N   0  0  0  0  0  0  0  0  0  0  0  0
    3.8677    8.7444    0.0000 N   0  0  0  0  0  0  0  0  0  0  0  0
    8.0459   14.7746    0.0000 C   0  0  0  0  0  0  0  0  0  0  0  0
    7.6887   16.4694    0.0000 C   0  0  0  0  0  0  0  0  0  0  0  0
    9.0244   14.9808    0.0000 C   0  0  0  0  0  0  0  0  0  0  0  0
    8.6672   16.6756    0.0000 C   0  0  0  0  0  0  0  0  0  0  0  0
    6.3995   15.3126    0.0000 C   0  0  0  0  0  0  0  0  0  0  0  0
    6.0889   14.3621    0.0000 C   0  0  0  0  0  0  0  0  0  0  0  0
   10.3135   16.1375    0.0000 C   0  0  0  0  0  0  0  0  0  0  0  0
    5.1104   14.1559    0.0000 C   0  0  0  0  0  0  0  0  0  0  0  0
    6.7567   13.6178    0.0000 C   0  0  0  0  0  0  0  0  0  0  0  0
   10.6242   17.0880    0.0000 C   0  0  0  0  0  0  0  0  0  0  0  0
    4.7997   13.2054    0.0000 C   0  0  0  0  0  0  0  0  0  0  0  0
    5.4675   12.4611    0.0000 C   0  0  0  0  0  0  0  0  0  0  0  0
    6.4460   12.6673    0.0000 C   0  0  0  0  0  0  0  0  0  0  0  0
    5.1569   11.5106    0.0000 C   0  0  0  0  0  0  0  0  0  0  0  0
    3.1533   13.7435    0.0000 C   0  0  0  0  0  0  0  0  0  0  0  0
    4.1784   11.3043    0.0000 C   0  0  0  0  0  0  0  0  0  0  0  0
    3.8677   10.3538    0.0000 C   0  0  0  0  0  0  0  0  0  0  0  0
    2.1748   13.5372    0.0000 C   0  0  0  0  0  0  0  0  0  0  0  0
    2.9215   10.0491    0.0000 C   0  0  0  0  0  0  0  0  0  0  0  0
    2.9215    9.0491    0.0000 C   0  0  0  0  0  0  0  0  0  0  0  0
    1.7665   12.6244    0.0000 C   0  0  0  0  0  0  0  0  0  0  0  0
    2.0555   10.5491    0.0000 C   0  0  0  0  0  0  0  0  0  0  0  0
    2.0555    8.5491    0.0000 C   0  0  0  0  0  0  0  0  0  0  0  0
    0.7722   12.7307    0.0000 C   0  0  0  0  0  0  0  0  0  0  0  0
    1.1894   10.0491    0.0000 C   0  0  0  0  0  0  0  0  0  0  0  0
    2.2650   11.7575    0.0000 C   0  0  0  0  0  0  0  0  0  0  0  0
    0.5660   13.7092    0.0000 C   0  0  0  0  0  0  0  0  0  0  0  0
    1.1894    9.0491    0.0000 C   0  0  0  0  0  0  0  0  0  0  0  0
    5.8977    3.6200    0.0000 C   0  0  0  0  0  0  0  0  0  0  0  0
    5.8977    1.6200    0.0000 C   0  0  0  0  0  0  0  0  0  0  0  0
    5.0316    3.1200    0.0000 C   0  0  0  0  0  0  0  0  0  0  0  0
    6.7637    3.1200    0.0000 C   0  0  0  0  0  0  0  0  0  0  0  0
    5.0316    2.1200    0.0000 C   0  0  0  0  0  0  0  0  0  0  0  0
    6.7637    2.1200    0.0000 C   0  0  0  0  0  0  0  0  0  0  0  0
    5.8977    0.6200    0.0000 C   0  0  0  0  0  0  0  0  0  0  0  0
    7.5195   14.4469    0.0000 H   0  0  0  0  0  0  0  0  0  0  0  0
    8.2771   14.1993    0.0000 H   0  0  0  0  0  0  0  0  0  0  0  0
    7.6681   17.0890    0.0000 H   0  0  0  0  0  0  0  0  0  0  0  0
    7.0749   16.5567    0.0000 H   0  0  0  0  0  0  0  0  0  0  0  0
    9.0449   14.3611    0.0000 H   0  0  0  0  0  0  0  0  0  0  0  0
    9.6382   14.8934    0.0000 H   0  0  0  0  0  0  0  0  0  0  0  0
    9.1936   17.0032    0.0000 H   0  0  0  0  0  0  0  0  0  0  0  0
    8.4359   17.2509    0.0000 H   0  0  0  0  0  0  0  0  0  0  0  0
    6.3790   15.9323    0.0000 H   0  0  0  0  0  0  0  0  0  0  0  0
    5.7857   15.4000    0.0000 H   0  0  0  0  0  0  0  0  0  0  0  0
    4.6963   14.6174    0.0000 H   0  0  0  0  0  0  0  0  0  0  0  0
    7.3634   13.7457    0.0000 H   0  0  0  0  0  0  0  0  0  0  0  0
   10.6036   17.7077    0.0000 H   0  0  0  0  0  0  0  0  0  0  0  0
   10.0104   17.1754    0.0000 H   0  0  0  0  0  0  0  0  0  0  0  0
    6.8601   12.2058    0.0000 H   0  0  0  0  0  0  0  0  0  0  0  0
    3.6286   12.4098    0.0000 H   0  0  0  0  0  0  0  0  0  0  0  0
    5.5709   11.0491    0.0000 H   0  0  0  0  0  0  0  0  0  0  0  0
   11.7953   17.8836    0.0000 H   0  0  0  0  0  0  0  0  0  0  0  0
    3.7643   11.7658    0.0000 H   0  0  0  0  0  0  0  0  0  0  0  0
    4.0603    8.1550    0.0000 H   0  0  0  0  0  0  0  0  0  0  0  0
    2.0555   11.1691    0.0000 H   0  0  0  0  0  0  0  0  0  0  0  0
    2.0555    7.9291    0.0000 H   0  0  0  0  0  0  0  0  0  0  0  0
    0.3565   12.2706    0.0000 H   0  0  0  0  0  0  0  0  0  0  0  0
    0.6525   10.3591    0.0000 H   0  0  0  0  0  0  0  0  0  0  0  0
    1.7276   11.4484    0.0000 H   0  0  0  0  0  0  0  0  0  0  0  0
    2.5741   11.2200    0.0000 H   0  0  0  0  0  0  0  0  0  0  0  0
    2.8025   12.0666    0.0000 H   0  0  0  0  0  0  0  0  0  0  0  0
    0.6525    8.7391    0.0000 H   0  0  0  0  0  0  0  0  0  0  0  0
    0.0000   13.9623    0.0000 H   0  0  0  0  0  0  0  0  0  0  0  0
    4.4947    3.4300    0.0000 H   0  0  0  0  0  0  0  0  0  0  0  0
    7.3006    3.4300    0.0000 H   0  0  0  0  0  0  0  0  0  0  0  0
    4.4947    1.8100    0.0000 H   0  0  0  0  0  0  0  0  0  0  0  0
    7.3006    1.8100    0.0000 H   0  0  0  0  0  0  0  0  0  0  0  0
    5.2777    0.6200    0.0000 H   0  0  0  0  0  0  0  0  0  0  0  0
    5.8977    0.0000    0.0000 H   0  0  0  0  0  0  0  0  0  0  0  0
    6.5177    0.6200    0.0000 H   0  0  0  0  0  0  0  0  0  0  0  0
    6.4346    5.9300    0.0000 H   0  0  0  0  0  0  0  0  0  0  0  0
  1 31  1  0  0  0  0
  1 40  1  0  0  0  0
  2  6  1  0  0  0  0
  2  7  2  0  0  0  0
  2  8  2  0  0  0  0
  2 42  1  0  0  0  0
  3 20  2  0  0  0  0
  4 23  1  0  0  0  0
  4 66  1  0  0  0  0
  5 28  2  0  0  0  0
  6 85  1  0  0  0  0
  9 14  1  0  0  0  0
  9 15  1  0  0  0  0
  9 18  1  0  0  0  0
 10 16  1  0  0  0  0
 10 17  1  0  0  0  0
 10 20  1  0  0  0  0
 11 24  1  0  0  0  0
 11 28  1  0  0  0  0
 11 64  1  0  0  0  0
 12 13  1  0  0  0  0
 12 30  2  0  0  0  0
 13 33  1  0  0  0  0
 13 68  1  0  0  0  0
 14 16  1  0  0  0  0
 14 49  1  0  0  0  0
 14 50  1  0  0  0  0
 15 17  1  0  0  0  0
 15 51  1  0  0  0  0
 15 52  1  0  0  0  0
 16 53  1  0  0  0  0
 16 54  1  0  0  0  0
 17 55  1  0  0  0  0
 17 56  1  0  0  0  0
 18 19  1  0  0  0  0
 18 57  1  0  0  0  0
 18 58  1  0  0  0  0
 19 21  2  0  0  0  0
 19 22  1  0  0  0  0
 20 23  1  0  0  0  0
 21 24  1  0  0  0  0
 21 59  1  0  0  0  0
 22 26  2  0  0  0  0
 22 60  1  0  0  0  0
 23 61  1  0  0  0  0
 23 62  1  0  0  0  0
 24 25  2  0  0  0  0
 25 26  1  0  0  0  0
 25 27  1  0  0  0  0
 26 63  1  0  0  0  0
 27 29  2  0  0  0  0
 27 65  1  0  0  0  0
 28 31  1  0  0  0  0
 29 30  1  0  0  0  0
 29 67  1  0  0  0  0
 30 32  1  0  0  0  0
 31 34  2  0  0  0  0
 32 33  1  0  0  0  0
 32 35  2  0  0  0  0
 33 36  2  0  0  0  0
 34 37  1  0  0  0  0
 34 39  1  0  0  0  0
 35 38  1  0  0  0  0
 35 69  1  0  0  0  0
 36 41  1  0  0  0  0
 36 70  1  0  0  0  0
 37 40  2  0  0  0  0
 37 71  1  0  0  0  0
 38 41  2  0  0  0  0
 38 72  1  0  0  0  0
 39 73  1  0  0  0  0
 39 74  1  0  0  0  0
 39 75  1  0  0  0  0
 40 77  1  0  0  0  0
 41 76  1  0  0  0  0
 42 44  2  0  0  0  0
 42 45  1  0  0  0  0
 43 46  2  0  0  0  0
 43 47  1  0  0  0  0
 43 48  1  0  0  0  0
 44 46  1  0  0  0  0
 44 78  1  0  0  0  0
 45 47  2  0  0  0  0
 45 79  1  0  0  0  0
 46 80  1  0  0  0  0
 47 81  1  0  0  0  0
 48 82  1  0  0  0  0
 48 83  1  0  0  0  0
 48 84  1  0  0  0  0
M  END
> <PUBCHEM_COMPOUND_CID>
56847547

> <PUBCHEM_COMPOUND_CANONICALIZED>
1

> <PUBCHEM_CACTVS_COMPLEXITY>
1030

> <PUBCHEM_CACTVS_HBOND_ACCEPTOR>
9

> <PUBCHEM_CACTVS_HBOND_DONOR>
4

> <PUBCHEM_CACTVS_ROTATABLE_BOND>
8

> <PUBCHEM_CACTVS_SUBSKEYS>
AAADcfB/uABgAAAAAAAAAAAAAAAAAWJAAAA8YMEAAAAAAFgB/AAAHgQYCAAADAjl3gaywfPjAoquAyVyUHLTBMAlChBYuTl4ZNgKcLLg1dGUpQhgngD4yQcYgIAOUAAAQAACAACgAACAAAQAAAAAAAAAAA==

> <PUBCHEM_IUPAC_OPENEYE_NAME>
N-[5-[[4-(2-hydroxyacetyl)piperazin-1-yl]methyl]-2-[(E)-2-(1H-indazol-3-yl)vinyl]phenyl]-3-methyl-thiophene-2-carboxamide;4-methylbenzenesulfonic acid

> <PUBCHEM_IUPAC_CAS_NAME>
N-[5-[[4-(2-hydroxy-1-oxoethyl)-1-piperazinyl]methyl]-2-[(E)-2-(1H-indazol-3-yl)ethenyl]phenyl]-3-methyl-2-thiophenecarboxamide;4-methylbenzenesulfonic acid

> <PUBCHEM_IUPAC_NAME_MARKUP>
<I>N</I>-[5-[[4-(2-hydroxyacetyl)piperazin-1-yl]methyl]-2-[(<I>E</I>)-2-(1<I>H</I>-indazol-3-yl)ethenyl]phenyl]-3-methylthiophene-2-carboxamide;4-methylbenzenesulfonic acid

> <PUBCHEM_IUPAC_NAME>
N-[5-[[4-(2-hydroxyacetyl)piperazin-1-yl]methyl]-2-[(E)-2-(1H-indazol-3-yl)ethenyl]phenyl]-3-methylthiophene-2-carboxamide;4-methylbenzenesulfonic acid

> <PUBCHEM_IUPAC_SYSTEMATIC_NAME>
N-[2-[(E)-2-(1H-indazol-3-yl)ethenyl]-5-[[4-(2-oxidanylethanoyl)piperazin-1-yl]methyl]phenyl]-3-methyl-thiophene-2-carboxamide;4-methylbenzenesulfonic acid

> <PUBCHEM_IUPAC_TRADITIONAL_NAME>
N-[5-[(4-glycoloylpiperazino)methyl]-2-[(E)-2-(1H-indazol-3-yl)vinyl]phenyl]-3-methyl-thiophene-2-carboxamide;tosylic acid

> <PUBCHEM_IUPAC_INCHI>
InChI=1S/C28H29N5O3S.C7H8O3S/c1-19-10-15-37-27(19)28(36)29-25-16-20(17-32-11-13-33(14-12-32)26(35)18-34)6-7-21(25)8-9-24-22-4-2-3-5-23(22)30-31-24;1-6-2-4-7(5-3-6)11(8,9)10/h2-10,15-16,34H,11-14,17-18H2,1H3,(H,29,36)(H,30,31);2-5H,1H3,(H,8,9,10)/b9-8+;

> <PUBCHEM_IUPAC_INCHIKEY>
SIJKXSMUXNJNQM-HRNDJLQDSA-N

> <PUBCHEM_EXACT_MASS>
687.21852626

> <PUBCHEM_MOLECULAR_FORMULA>
C35H37N5O6S2

> <PUBCHEM_MOLECULAR_WEIGHT>
687.8

> <PUBCHEM_OPENEYE_CAN_SMILES>
CC1=CC=C(C=C1)S(=O)(=O)O.CC1=C(SC=C1)C(=O)NC2=C(C=CC(=C2)CN3CCN(CC3)C(=O)CO)C=CC4=NNC5=CC=CC=C54

> <PUBCHEM_OPENEYE_ISO_SMILES>
CC1=CC=C(C=C1)S(=O)(=O)O.CC1=C(SC=C1)C(=O)NC2=C(C=CC(=C2)CN3CCN(CC3)C(=O)CO)/C=C/C4=NNC5=CC=CC=C54

> <PUBCHEM_CACTVS_TPSA>
193

> <PUBCHEM_MONOISOTOPIC_WEIGHT>
687.21852626

> <PUBCHEM_TOTAL_CHARGE>
0

> <PUBCHEM_HEAVY_ATOM_COUNT>
48

> <PUBCHEM_ATOM_DEF_STEREO_COUNT>
0

> <PUBCHEM_ATOM_UDEF_STEREO_COUNT>
0

> <PUBCHEM_BOND_DEF_STEREO_COUNT>
1

> <PUBCHEM_BOND_UDEF_STEREO_COUNT>
0

> <PUBCHEM_ISOTOPIC_ATOM_COUNT>
0

> <PUBCHEM_COMPONENT_COUNT>
2

> <PUBCHEM_CACTVS_TAUTO_COUNT>
-1

> <PUBCHEM_COORDINATE_TYPE>
1
5
255

> <PUBCHEM_BONDANNOTATIONS>
1  31  8
1  40  8
12  13  8
12  30  8
13  33  8
19  21  8
19  22  8
21  24  8
22  26  8
24  25  8
25  26  8
30  32  8
31  34  8
32  33  8
32  35  8
33  36  8
34  37  8
35  38  8
36  41  8
37  40  8
38  41  8
42  44  8
42  45  8
43  46  8
43  47  8
44  46  8
45  47  8

$$$$
71535003
  -OEChem-11282412102D

 52 55  0     1  0  0  0  0  0999 V2000
    9.2982   -1.2200    0.0000 Cl  0  0  0  0  0  0  0  0  0  0  0  0
    8.0693    0.8036    0.0000 O   0  0  0  0  0  0  0  0  0  0  0  0
    7.1753   -0.9752    0.0000 O   0  0  0  0  0  0  0  0  0  0  0  0
    4.2269    2.7681    0.0000 O   0  0  0  0  0  0  0  0  0  0  0  0
    5.8092    2.0636    0.0000 N   0  0  0  0  0  0  0  0  0  0  0  0
    6.3092   -2.4752    0.0000 N   0  0  0  0  0  0  0  0  0  0  0  0
    8.9875   -3.7799    0.0000 N   0  0  0  0  0  0  0  0  0  0  0  0
    7.1753   -3.9752    0.0000 N   0  0  0  0  0  0  0  0  0  0  0  0
    5.4432   -3.9752    0.0000 N   0  0  0  0  0  0  0  0  0  0  0  0
    2.9945   -3.1388    0.0000 N   0  0  0  0  0  0  0  0  0  0  0  0
    3.4945   -2.2728    0.0000 N   0  0  0  0  0  0  0  0  0  0  0  0
    6.3092    0.5248    0.0000 C   0  0  2  0  0  0  0  0  0  0  0  0
    7.1183    1.1126    0.0000 C   0  0  2  0  0  0  0  0  0  0  0  0
    5.5002    1.1126    0.0000 C   0  0  0  0  0  0  0  0  0  0  0  0
    6.8092    2.0636    0.0000 C   0  0  0  0  0  0  0  0  0  0  0  0
    6.3092   -0.4752    0.0000 C   0  0  0  0  0  0  0  0  0  0  0  0
    5.2215    2.8726    0.0000 C   0  0  0  0  0  0  0  0  0  0  0  0
    8.8125    1.4727    0.0000 C   0  0  0  0  0  0  0  0  0  0  0  0
    7.1753   -1.9752    0.0000 C   0  0  0  0  0  0  0  0  0  0  0  0
    5.6282    3.7862    0.0000 C   0  0  0  0  0  0  0  0  0  0  0  0
    8.0413   -2.4752    0.0000 C   0  0  0  0  0  0  0  0  0  0  0  0
    8.0413   -3.4752    0.0000 C   0  0  0  0  0  0  0  0  0  0  0  0
    5.0404    4.5952    0.0000 C   0  0  0  0  0  0  0  0  0  0  0  0
    8.9875   -2.1705    0.0000 C   0  0  0  0  0  0  0  0  0  0  0  0
    6.3092   -3.4752    0.0000 C   0  0  0  0  0  0  0  0  0  0  0  0
    9.5711   -2.9752    0.0000 C   0  0  0  0  0  0  0  0  0  0  0  0
    4.5772   -3.4752    0.0000 C   0  0  0  0  0  0  0  0  0  0  0  0
    3.6636   -3.8820    0.0000 C   0  0  0  0  0  0  0  0  0  0  0  0
    4.4727   -2.4807    0.0000 C   0  0  0  0  0  0  0  0  0  0  0  0
    2.0000   -3.2433    0.0000 C   0  0  0  0  0  0  0  0  0  0  0  0
    6.8617    0.2433    0.0000 H   0  0  0  0  0  0  0  0  0  0  0  0
    7.2153    0.5002    0.0000 H   0  0  0  0  0  0  0  0  0  0  0  0
    4.9338    1.3647    0.0000 H   0  0  0  0  0  0  0  0  0  0  0  0
    5.1902    0.5756    0.0000 H   0  0  0  0  0  0  0  0  0  0  0  0
    7.4157    2.1925    0.0000 H   0  0  0  0  0  0  0  0  0  0  0  0
    6.7444    2.6802    0.0000 H   0  0  0  0  0  0  0  0  0  0  0  0
    5.6987   -0.3675    0.0000 H   0  0  0  0  0  0  0  0  0  0  0  0
    6.0972   -1.0578    0.0000 H   0  0  0  0  0  0  0  0  0  0  0  0
    9.2273    1.0119    0.0000 H   0  0  0  0  0  0  0  0  0  0  0  0
    9.2732    1.8876    0.0000 H   0  0  0  0  0  0  0  0  0  0  0  0
    8.3976    1.9334    0.0000 H   0  0  0  0  0  0  0  0  0  0  0  0
    6.2448    3.8510    0.0000 H   0  0  0  0  0  0  0  0  0  0  0  0
    5.2926    5.1616    0.0000 H   0  0  0  0  0  0  0  0  0  0  0  0
    4.4238    4.5304    0.0000 H   0  0  0  0  0  0  0  0  0  0  0  0
    9.1801   -4.3693    0.0000 H   0  0  0  0  0  0  0  0  0  0  0  0
   10.1911   -2.9752    0.0000 H   0  0  0  0  0  0  0  0  0  0  0  0
    5.4432   -4.5952    0.0000 H   0  0  0  0  0  0  0  0  0  0  0  0
    3.5348   -4.4884    0.0000 H   0  0  0  0  0  0  0  0  0  0  0  0
    4.9334   -2.0658    0.0000 H   0  0  0  0  0  0  0  0  0  0  0  0
    1.9352   -2.6267    0.0000 H   0  0  0  0  0  0  0  0  0  0  0  0
    1.3834   -3.3081    0.0000 H   0  0  0  0  0  0  0  0  0  0  0  0
    2.0648   -3.8599    0.0000 H   0  0  0  0  0  0  0  0  0  0  0  0
  1 24  1  0  0  0  0
 13  2  1  6  0  0  0
  2 18  1  0  0  0  0
  3 16  1  0  0  0  0
  3 19  1  0  0  0  0
  4 17  2  0  0  0  0
  5 14  1  0  0  0  0
  5 15  1  0  0  0  0
  5 17  1  0  0  0  0
  6 19  2  0  0  0  0
  6 25  1  0  0  0  0
  7 22  1  0  0  0  0
  7 26  1  0  0  0  0
  7 45  1  0  0  0  0
  8 22  1  0  0  0  0
  8 25  2  0  0  0  0
  9 25  1  0  0  0  0
  9 27  1  0  0  0  0
  9 47  1  0  0  0  0
 10 11  1  0  0  0  0
 10 28  1  0  0  0  0
 10 30  1  0  0  0  0
 11 29  2  0  0  0  0
 12 13  1  0  0  0  0
 12 14  1  0  0  0  0
 12 16  1  1  0  0  0
 12 31  1  0  0  0  0
 13 15  1  0  0  0  0
 13 32  1  0  0  0  0
 14 33  1  0  0  0  0
 14 34  1  0  0  0  0
 15 35  1  0  0  0  0
 15 36  1  0  0  0  0
 16 37  1  0  0  0  0
 16 38  1  0  0  0  0
 17 20  1  0  0  0  0
 18 39  1  0  0  0  0
 18 40  1  0  0  0  0
 18 41  1  0  0  0  0
 19 21  1  0  0  0  0
 20 23  2  0  0  0  0
 20 42  1  0  0  0  0
 21 22  2  0  0  0  0
 21 24  1  0  0  0  0
 23 43  1  0  0  0  0
 23 44  1  0  0  0  0
 24 26  2  0  0  0  0
 26 46  1  0  0  0  0
 27 28  2  0  0  0  0
 27 29  1  0  0  0  0
 28 48  1  0  0  0  0
 29 49  1  0  0  0  0
 30 50  1  0  0  0  0
 30 51  1  0  0  0  0
 30 52  1  0  0  0  0
M  END
> <PUBCHEM_COMPOUND_CID>
71535003

> <PUBCHEM_COMPOUND_CANONICALIZED>
1

> <PUBCHEM_CACTVS_COMPLEXITY>
629

> <PUBCHEM_CACTVS_HBOND_ACCEPTOR>
7

> <PUBCHEM_CACTVS_HBOND_DONOR>
2

> <PUBCHEM_CACTVS_ROTATABLE_BOND>
7

> <PUBCHEM_CACTVS_SUBSKEYS>
AAADceB7sAAEAAAAAAAAAAAAAAAAAWLFgAAsAAAAAAAAAFgB/gAAHgIYAAAADR7hmyYv9N/JlACqAjd3dACSjCmxt6AZ2aAsftiObsBE6ctfnCjPXhvQYKAgAAAIAAAAAAAAAAAAAAAAAAAAAAAAAAAAAA==

> <PUBCHEM_IUPAC_OPENEYE_NAME>
1-[(3R,4R)-3-[[5-chloro-2-[(1-methylpyrazol-4-yl)amino]-7H-pyrrolo[2,3-d]pyrimidin-4-yl]oxymethyl]-4-methoxy-pyrrolidin-1-yl]prop-2-en-1-one

> <PUBCHEM_IUPAC_CAS_NAME>
1-[(3R,4R)-3-[[5-chloro-2-[(1-methyl-4-pyrazolyl)amino]-7H-pyrrolo[2,3-d]pyrimidin-4-yl]oxymethyl]-4-methoxy-1-pyrrolidinyl]-2-propen-1-one

> <PUBCHEM_IUPAC_NAME_MARKUP>
1-[(3<I>R</I>,4<I>R</I>)-3-[[5-chloro-2-[(1-methylpyrazol-4-yl)amino]-7<I>H</I>-pyrrolo[2,3-d]pyrimidin-4-yl]oxymethyl]-4-methoxypyrrolidin-1-yl]prop-2-en-1-one

> <PUBCHEM_IUPAC_NAME>
1-[(3R,4R)-3-[[5-chloro-2-[(1-methylpyrazol-4-yl)amino]-7H-pyrrolo[2,3-d]pyrimidin-4-yl]oxymethyl]-4-methoxypyrrolidin-1-yl]prop-2-en-1-one

> <PUBCHEM_IUPAC_SYSTEMATIC_NAME>
1-[(3R,4R)-3-[[5-chloranyl-2-[(1-methylpyrazol-4-yl)amino]-7H-pyrrolo[2,3-d]pyrimidin-4-yl]oxymethyl]-4-methoxy-pyrrolidin-1-yl]prop-2-en-1-one

> <PUBCHEM_IUPAC_TRADITIONAL_NAME>
1-[(3R,4R)-3-[[5-chloro-2-[(1-methylpyrazol-4-yl)amino]-7H-pyrrolo[2,3-d]pyrimidin-4-yl]oxymethyl]-4-methoxy-pyrrolidino]prop-2-en-1-one

> <PUBCHEM_IUPAC_INCHI>
InChI=1S/C19H22ClN7O3/c1-4-15(28)27-7-11(14(9-27)29-3)10-30-18-16-13(20)6-21-17(16)24-19(25-18)23-12-5-22-26(2)8-12/h4-6,8,11,14H,1,7,9-10H2,2-3H3,(H2,21,23,24,25)/t11-,14+/m1/s1

> <PUBCHEM_IUPAC_INCHIKEY>
ODMXWZROLKITMS-RISCZKNCSA-N

> <PUBCHEM_XLOGP3_AA>
1.8

> <PUBCHEM_EXACT_MASS>
431.1472653

> <PUBCHEM_MOLECULAR_FORMULA>
C19H22ClN7O3

> <PUBCHEM_MOLECULAR_WEIGHT>
431.9

> <PUBCHEM_OPENEYE_CAN_SMILES>
CN1C=C(C=N1)NC2=NC3=C(C(=CN3)Cl)C(=N2)OCC4CN(CC4OC)C(=O)C=C

> <PUBCHEM_OPENEYE_ISO_SMILES>
CN1C=C(C=N1)NC2=NC3=C(C(=CN3)Cl)C(=N2)OC[C@H]4CN(C[C@@H]4OC)C(=O)C=C

> <PUBCHEM_CACTVS_TPSA>
110

> <PUBCHEM_MONOISOTOPIC_WEIGHT>
431.1472653

> <PUBCHEM_TOTAL_CHARGE>
0

> <PUBCHEM_HEAVY_ATOM_COUNT>
30

> <PUBCHEM_ATOM_DEF_STEREO_COUNT>
2

> <PUBCHEM_ATOM_UDEF_STEREO_COUNT>
0

> <PUBCHEM_BOND_DEF_STEREO_COUNT>
0

> <PUBCHEM_BOND_UDEF_STEREO_COUNT>
0

> <PUBCHEM_ISOTOPIC_ATOM_COUNT>
0

> <PUBCHEM_COMPONENT_COUNT>
1

> <PUBCHEM_CACTVS_TAUTO_COUNT>
9

> <PUBCHEM_COORDINATE_TYPE>
1
5
255

> <PUBCHEM_BONDANNOTATIONS>
10  11  8
10  28  8
11  29  8
12  16  5
19  21  8
13  2  6
21  22  8
21  24  8
24  26  8
27  28  8
27  29  8
6  19  8
6  25  8
7  22  8
7  26  8
8  22  8
8  25  8

$$$$
117909640
  -OEChem-11282412102D

 67 71  0     0  0  0  0  0  0999 V2000
    9.8622   -0.0579    0.0000 F   0  0  0  0  0  0  0  0  0  0  0  0
    8.1301   -1.0579    0.0000 F   0  0  0  0  0  0  0  0  0  0  0  0
   13.3263    4.9421    0.0000 O   0  0  0  0  0  0  0  0  0  0  0  0
    3.8241   -4.5822    0.0000 O   0  0  0  0  0  0  0  0  0  0  0  0
   11.5942    2.9421    0.0000 N   0  0  0  0  0  0  0  0  0  0  0  0
    9.8622    1.9421    0.0000 N   0  0  0  0  0  0  0  0  0  0  0  0
    6.3981   -0.0579    0.0000 N   0  0  0  0  0  0  0  0  0  0  0  0
    4.6660   -0.0579    0.0000 N   0  0  0  0  0  0  0  0  0  0  0  0
    5.5321    1.4421    0.0000 N   0  0  0  0  0  0  0  0  0  0  0  0
    4.6727   -3.0723    0.0000 N   0  0  0  0  0  0  0  0  0  0  0  0
   11.5942    1.9421    0.0000 C   0  0  0  0  0  0  0  0  0  0  0  0
   10.7282    3.4421    0.0000 C   0  0  0  0  0  0  0  0  0  0  0  0
   10.7282    1.4421    0.0000 C   0  0  0  0  0  0  0  0  0  0  0  0
    9.8622    2.9421    0.0000 C   0  0  0  0  0  0  0  0  0  0  0  0
   12.4603    3.4421    0.0000 C   0  0  0  0  0  0  0  0  0  0  0  0
    8.9962    1.4421    0.0000 C   0  0  0  0  0  0  0  0  0  0  0  0
   12.4603    4.4421    0.0000 C   0  0  0  0  0  0  0  0  0  0  0  0
    8.9962    0.4421    0.0000 C   0  0  0  0  0  0  0  0  0  0  0  0
    8.1301    1.9421    0.0000 C   0  0  0  0  0  0  0  0  0  0  0  0
    8.1301   -0.0579    0.0000 C   0  0  0  0  0  0  0  0  0  0  0  0
    7.2641    1.4421    0.0000 C   0  0  0  0  0  0  0  0  0  0  0  0
    7.2641    0.4421    0.0000 C   0  0  0  0  0  0  0  0  0  0  0  0
    5.5321    0.4421    0.0000 C   0  0  0  0  0  0  0  0  0  0  0  0
    3.8000    0.4421    0.0000 C   0  0  0  0  0  0  0  0  0  0  0  0
    2.9061   -0.0925    0.0000 C   0  0  0  0  0  0  0  0  0  0  0  0
    3.8000    1.4421    0.0000 C   0  0  0  0  0  0  0  0  0  0  0  0
    2.9176   -1.0925    0.0000 C   0  0  0  0  0  0  0  0  0  0  0  0
    4.6660    1.9421    0.0000 C   0  0  0  0  0  0  0  0  0  0  0  0
    2.0000    0.4213    0.0000 C   0  0  0  0  0  0  0  0  0  0  0  0
    2.9061    1.9768    0.0000 C   0  0  0  0  0  0  0  0  0  0  0  0
    2.0000    1.4629    0.0000 C   0  0  0  0  0  0  0  0  0  0  0  0
    3.7894   -1.5824    0.0000 C   0  0  0  0  0  0  0  0  0  0  0  0
    2.0574   -1.6024    0.0000 C   0  0  0  0  0  0  0  0  0  0  0  0
    3.8009   -2.5824    0.0000 C   0  0  0  0  0  0  0  0  0  0  0  0
    2.0690   -2.6024    0.0000 C   0  0  0  0  0  0  0  0  0  0  0  0
    2.9408   -3.0923    0.0000 C   0  0  0  0  0  0  0  0  0  0  0  0
    4.6843   -4.0722    0.0000 C   0  0  0  0  0  0  0  0  0  0  0  0
    5.5560   -4.5622    0.0000 C   0  0  0  0  0  0  0  0  0  0  0  0
    5.5676   -5.5621    0.0000 C   0  0  0  0  0  0  0  0  0  0  0  0
   11.8063    1.3595    0.0000 H   0  0  0  0  0  0  0  0  0  0  0  0
   12.2048    2.0498    0.0000 H   0  0  0  0  0  0  0  0  0  0  0  0
   11.1267    3.9171    0.0000 H   0  0  0  0  0  0  0  0  0  0  0  0
   10.3297    3.9171    0.0000 H   0  0  0  0  0  0  0  0  0  0  0  0
   10.3297    0.9672    0.0000 H   0  0  0  0  0  0  0  0  0  0  0  0
   11.1267    0.9672    0.0000 H   0  0  0  0  0  0  0  0  0  0  0  0
    9.6501    3.5247    0.0000 H   0  0  0  0  0  0  0  0  0  0  0  0
    9.2516    2.8345    0.0000 H   0  0  0  0  0  0  0  0  0  0  0  0
   12.6723    2.8595    0.0000 H   0  0  0  0  0  0  0  0  0  0  0  0
   13.0708    3.5498    0.0000 H   0  0  0  0  0  0  0  0  0  0  0  0
   12.2482    5.0247    0.0000 H   0  0  0  0  0  0  0  0  0  0  0  0
   11.8497    4.3345    0.0000 H   0  0  0  0  0  0  0  0  0  0  0  0
    8.1301    2.5621    0.0000 H   0  0  0  0  0  0  0  0  0  0  0  0
    6.7272    1.7521    0.0000 H   0  0  0  0  0  0  0  0  0  0  0  0
   13.3263    5.5621    0.0000 H   0  0  0  0  0  0  0  0  0  0  0  0
    6.3981   -0.6779    0.0000 H   0  0  0  0  0  0  0  0  0  0  0  0
    1.4643    0.1092    0.0000 H   0  0  0  0  0  0  0  0  0  0  0  0
    4.6660    2.5621    0.0000 H   0  0  0  0  0  0  0  0  0  0  0  0
    2.9132    2.5968    0.0000 H   0  0  0  0  0  0  0  0  0  0  0  0
    1.4643    1.7750    0.0000 H   0  0  0  0  0  0  0  0  0  0  0  0
    4.3227   -1.2662    0.0000 H   0  0  0  0  0  0  0  0  0  0  0  0
    1.5170   -1.2987    0.0000 H   0  0  0  0  0  0  0  0  0  0  0  0
    1.5357   -2.9186    0.0000 H   0  0  0  0  0  0  0  0  0  0  0  0
    2.9479   -3.7123    0.0000 H   0  0  0  0  0  0  0  0  0  0  0  0
    5.2060   -2.7561    0.0000 H   0  0  0  0  0  0  0  0  0  0  0  0
    6.0893   -4.2460    0.0000 H   0  0  0  0  0  0  0  0  0  0  0  0
    5.0342   -5.8783    0.0000 H   0  0  0  0  0  0  0  0  0  0  0  0
    6.1081   -5.8659    0.0000 H   0  0  0  0  0  0  0  0  0  0  0  0
  1 18  1  0  0  0  0
  2 20  1  0  0  0  0
  3 17  1  0  0  0  0
  3 54  1  0  0  0  0
  4 37  2  0  0  0  0
  5 11  1  0  0  0  0
  5 12  1  0  0  0  0
  5 15  1  0  0  0  0
  6 13  1  0  0  0  0
  6 14  1  0  0  0  0
  6 16  1  0  0  0  0
  7 22  1  0  0  0  0
  7 23  1  0  0  0  0
  7 55  1  0  0  0  0
  8 23  1  0  0  0  0
  8 24  2  0  0  0  0
  9 23  2  0  0  0  0
  9 28  1  0  0  0  0
 10 34  1  0  0  0  0
 10 37  1  0  0  0  0
 10 64  1  0  0  0  0
 11 13  1  0  0  0  0
 11 40  1  0  0  0  0
 11 41  1  0  0  0  0
 12 14  1  0  0  0  0
 12 42  1  0  0  0  0
 12 43  1  0  0  0  0
 13 44  1  0  0  0  0
 13 45  1  0  0  0  0
 14 46  1  0  0  0  0
 14 47  1  0  0  0  0
 15 17  1  0  0  0  0
 15 48  1  0  0  0  0
 15 49  1  0  0  0  0
 16 18  2  0  0  0  0
 16 19  1  0  0  0  0
 17 50  1  0  0  0  0
 17 51  1  0  0  0  0
 18 20  1  0  0  0  0
 19 21  2  0  0  0  0
 19 52  1  0  0  0  0
 20 22  2  0  0  0  0
 21 22  1  0  0  0  0
 21 53  1  0  0  0  0
 24 25  1  0  0  0  0
 24 26  1  0  0  0  0
 25 27  1  0  0  0  0
 25 29  2  0  0  0  0
 26 28  2  0  0  0  0
 26 30  1  0  0  0  0
 27 32  2  0  0  0  0
 27 33  1  0  0  0  0
 28 57  1  0  0  0  0
 29 31  1  0  0  0  0
 29 56  1  0  0  0  0
 30 31  2  0  0  0  0
 30 58  1  0  0  0  0
 31 59  1  0  0  0  0
 32 34  1  0  0  0  0
 32 60  1  0  0  0  0
 33 35  2  0  0  0  0
 33 61  1  0  0  0  0
 34 36  2  0  0  0  0
 35 36  1  0  0  0  0
 35 62  1  0  0  0  0
 36 63  1  0  0  0  0
 37 38  1  0  0  0  0
 38 39  2  0  0  0  0
 38 65  1  0  0  0  0
 39 66  1  0  0  0  0
 39 67  1  0  0  0  0
M  END
> <PUBCHEM_COMPOUND_CID>
117909640

> <PUBCHEM_COMPOUND_CANONICALIZED>
1

> <PUBCHEM_CACTVS_COMPLEXITY>
815

> <PUBCHEM_CACTVS_HBOND_ACCEPTOR>
9

> <PUBCHEM_CACTVS_HBOND_DONOR>
3

> <PUBCHEM_CACTVS_ROTATABLE_BOND>
8

> <PUBCHEM_CACTVS_SUBSKEYS>
AAADceB7sYAAAAAAAAAAAAAAAAAAAAAAAAA8eMECAAAAAACx9AAAHwAQCAAADAjhng490PfIEgCoAzV3dACCgCkxAqAJ2CAoZNiKeKLA2dGUJAholALYyKcQgMAOgACCQAACAAAAAQSAAAQAAAAAAAAAAA==

> <PUBCHEM_IUPAC_OPENEYE_NAME>
N-[3-[2-[2,3-difluoro-4-[4-(2-hydroxyethyl)piperazin-1-yl]anilino]quinazolin-8-yl]phenyl]prop-2-enamide

> <PUBCHEM_IUPAC_CAS_NAME>
N-[3-[2-[2,3-difluoro-4-[4-(2-hydroxyethyl)-1-piperazinyl]anilino]-8-quinazolinyl]phenyl]-2-propenamide

> <PUBCHEM_IUPAC_NAME_MARKUP>
<I>N</I>-[3-[2-[2,3-difluoro-4-[4-(2-hydroxyethyl)piperazin-1-yl]anilino]quinazolin-8-yl]phenyl]prop-2-enamide

> <PUBCHEM_IUPAC_NAME>
N-[3-[2-[2,3-difluoro-4-[4-(2-hydroxyethyl)piperazin-1-yl]anilino]quinazolin-8-yl]phenyl]prop-2-enamide

> <PUBCHEM_IUPAC_SYSTEMATIC_NAME>
N-[3-[2-[[2,3-bis(fluoranyl)-4-[4-(2-hydroxyethyl)piperazin-1-yl]phenyl]amino]quinazolin-8-yl]phenyl]prop-2-enamide

> <PUBCHEM_IUPAC_TRADITIONAL_NAME>
N-[3-[2-[2,3-difluoro-4-[4-(2-hydroxyethyl)piperazino]anilino]quinazolin-8-yl]phenyl]acrylamide

> <PUBCHEM_IUPAC_INCHI>
InChI=1S/C29H28F2N6O2/c1-2-25(39)33-21-7-3-5-19(17-21)22-8-4-6-20-18-32-29(35-28(20)22)34-23-9-10-24(27(31)26(23)30)37-13-11-36(12-14-37)15-16-38/h2-10,17-18,38H,1,11-16H2,(H,33,39)(H,32,34,35)

> <PUBCHEM_IUPAC_INCHIKEY>
IDRGFNPZDVBSSE-UHFFFAOYSA-N

> <PUBCHEM_XLOGP3_AA>
4.3

> <PUBCHEM_EXACT_MASS>
530.22418048

> <PUBCHEM_MOLECULAR_FORMULA>
C29H28F2N6O2

> <PUBCHEM_MOLECULAR_WEIGHT>
530.6

> <PUBCHEM_OPENEYE_CAN_SMILES>
C=CC(=O)NC1=CC=CC(=C1)C2=CC=CC3=CN=C(N=C32)NC4=C(C(=C(C=C4)N5CCN(CC5)CCO)F)F

> <PUBCHEM_OPENEYE_ISO_SMILES>
C=CC(=O)NC1=CC=CC(=C1)C2=CC=CC3=CN=C(N=C32)NC4=C(C(=C(C=C4)N5CCN(CC5)CCO)F)F

> <PUBCHEM_CACTVS_TPSA>
93.6

> <PUBCHEM_MONOISOTOPIC_WEIGHT>
530.22418048

> <PUBCHEM_TOTAL_CHARGE>
0

> <PUBCHEM_HEAVY_ATOM_COUNT>
39

> <PUBCHEM_ATOM_DEF_STEREO_COUNT>
0

> <PUBCHEM_ATOM_UDEF_STEREO_COUNT>
0

> <PUBCHEM_BOND_DEF_STEREO_COUNT>
0

> <PUBCHEM_BOND_UDEF_STEREO_COUNT>
0

> <PUBCHEM_ISOTOPIC_ATOM_COUNT>
0

> <PUBCHEM_COMPONENT_COUNT>
1

> <PUBCHEM_CACTVS_TAUTO_COUNT>
-1

> <PUBCHEM_COORDINATE_TYPE>
1
5
255

> <PUBCHEM_BONDANNOTATIONS>
16  18  8
16  19  8
18  20  8
19  21  8
20  22  8
21  22  8
24  25  8
24  26  8
25  29  8
26  28  8
26  30  8
27  32  8
27  33  8
29  31  8
30  31  8
32  34  8
33  35  8
34  36  8
35  36  8
8  23  8
8  24  8
9  23  8
9  28  8

$$$$
11494412
  -OEChem-11282412102D

 47 52  0     1  0  0  0  0  0999 V2000
    7.0848   -0.8369    0.0000 O   0  0  0  0  0  0  0  0  0  0  0  0
    5.9264    2.4871    0.0000 O   0  0  0  0  0  0  0  0  0  0  0  0
    3.5149   -1.7727    0.0000 N   0  0  0  0  0  0  0  0  0  0  0  0
    6.7689    0.9168    0.0000 N   0  0  0  0  0  0  0  0  0  0  0  0
    2.5848    1.1345    0.0000 N   0  0  0  0  0  0  0  0  0  0  0  0
    5.4803   -0.0617    0.0000 C   0  0  2  0  0  0  0  0  0  0  0  0
    5.1512    0.8826    0.0000 C   0  0  2  0  0  0  0  0  0  0  0  0
    4.9097   -0.8830    0.0000 C   0  0  0  0  0  0  0  0  0  0  0  0
    4.4088   -2.3073    0.0000 C   0  0  0  0  0  0  0  0  0  0  0  0
    5.2749   -1.8073    0.0000 C   0  0  0  0  0  0  0  0  0  0  0  0
    3.9161   -0.8634    0.0000 C   0  0  0  0  0  0  0  0  0  0  0  0
    2.6088   -2.2865    0.0000 C   0  0  0  0  0  0  0  0  0  0  0  0
    4.4088   -3.3073    0.0000 C   0  0  0  0  0  0  0  0  0  0  0  0
    4.1938    1.1714    0.0000 C   0  0  0  0  0  0  0  0  0  0  0  0
    2.6088   -3.3281    0.0000 C   0  0  0  0  0  0  0  0  0  0  0  0
    3.5149   -3.8420    0.0000 C   0  0  0  0  0  0  0  0  0  0  0  0
    6.4800   -0.0405    0.0000 C   0  0  0  0  0  0  0  0  0  0  0  0
    5.9476    1.4874    0.0000 C   0  0  0  0  0  0  0  0  0  0  0  0
    6.1409   -2.3073    0.0000 C   0  0  0  0  0  0  0  0  0  0  0  0
    3.8675    2.1104    0.0000 C   0  0  0  0  0  0  0  0  0  0  0  0
    5.2749   -3.8073    0.0000 C   0  0  0  0  0  0  0  0  0  0  0  0
    3.4026    0.5695    0.0000 C   0  0  0  0  0  0  0  0  0  0  0  0
    6.1409   -3.3073    0.0000 C   0  0  0  0  0  0  0  0  0  0  0  0
    2.8677    2.0875    0.0000 C   0  0  0  0  0  0  0  0  0  0  0  0
    4.3475    2.9876    0.0000 C   0  0  0  0  0  0  0  0  0  0  0  0
    2.3480    2.9418    0.0000 C   0  0  0  0  0  0  0  0  0  0  0  0
    3.8278    3.8420    0.0000 C   0  0  0  0  0  0  0  0  0  0  0  0
    2.8281    3.8191    0.0000 C   0  0  0  0  0  0  0  0  0  0  0  0
    4.6381    0.0534    0.0000 H   0  0  0  0  0  0  0  0  0  0  0  0
    4.5630    0.2689    0.0000 H   0  0  0  0  0  0  0  0  0  0  0  0
    3.5827   -0.3407    0.0000 H   0  0  0  0  0  0  0  0  0  0  0  0
    2.3998   -1.7028    0.0000 H   0  0  0  0  0  0  0  0  0  0  0  0
    1.9980   -2.3926    0.0000 H   0  0  0  0  0  0  0  0  0  0  0  0
    1.9980   -3.2220    0.0000 H   0  0  0  0  0  0  0  0  0  0  0  0
    2.3998   -3.9118    0.0000 H   0  0  0  0  0  0  0  0  0  0  0  0
    3.1213   -4.3210    0.0000 H   0  0  0  0  0  0  0  0  0  0  0  0
    3.9195   -4.3118    0.0000 H   0  0  0  0  0  0  0  0  0  0  0  0
    7.3543    1.1209    0.0000 H   0  0  0  0  0  0  0  0  0  0  0  0
    6.6778   -1.9973    0.0000 H   0  0  0  0  0  0  0  0  0  0  0  0
    5.2749   -4.4273    0.0000 H   0  0  0  0  0  0  0  0  0  0  0  0
    3.4168   -0.0503    0.0000 H   0  0  0  0  0  0  0  0  0  0  0  0
    6.6778   -3.6173    0.0000 H   0  0  0  0  0  0  0  0  0  0  0  0
    2.0000    0.9285    0.0000 H   0  0  0  0  0  0  0  0  0  0  0  0
    4.9674    3.0018    0.0000 H   0  0  0  0  0  0  0  0  0  0  0  0
    1.7282    2.9276    0.0000 H   0  0  0  0  0  0  0  0  0  0  0  0
    4.1254    4.3859    0.0000 H   0  0  0  0  0  0  0  0  0  0  0  0
    2.5059    4.3488    0.0000 H   0  0  0  0  0  0  0  0  0  0  0  0
  1 17  2  0  0  0  0
  2 18  2  0  0  0  0
  3  9  1  0  0  0  0
  3 11  1  0  0  0  0
  3 12  1  0  0  0  0
  4 17  1  0  0  0  0
  4 18  1  0  0  0  0
  4 38  1  0  0  0  0
  5 22  1  0  0  0  0
  5 24  1  0  0  0  0
  5 43  1  0  0  0  0
  6  7  1  0  0  0  0
  6  8  1  0  0  0  0
  6 17  1  0  0  0  0
  6 29  1  6  0  0  0
  7 14  1  0  0  0  0
  7 18  1  0  0  0  0
  7 30  1  1  0  0  0
  8 10  1  0  0  0  0
  8 11  2  0  0  0  0
  9 10  1  0  0  0  0
  9 13  2  0  0  0  0
 10 19  2  0  0  0  0
 11 31  1  0  0  0  0
 12 15  1  0  0  0  0
 12 32  1  0  0  0  0
 12 33  1  0  0  0  0
 13 16  1  0  0  0  0
 13 21  1  0  0  0  0
 14 20  1  0  0  0  0
 14 22  2  0  0  0  0
 15 16  1  0  0  0  0
 15 34  1  0  0  0  0
 15 35  1  0  0  0  0
 16 36  1  0  0  0  0
 16 37  1  0  0  0  0
 19 23  1  0  0  0  0
 19 39  1  0  0  0  0
 20 24  1  0  0  0  0
 20 25  2  0  0  0  0
 21 23  2  0  0  0  0
 21 40  1  0  0  0  0
 22 41  1  0  0  0  0
 23 42  1  0  0  0  0
 24 26  2  0  0  0  0
 25 27  1  0  0  0  0
 25 44  1  0  0  0  0
 26 28  1  0  0  0  0
 26 45  1  0  0  0  0
 27 28  2  0  0  0  0
 27 46  1  0  0  0  0
 28 47  1  0  0  0  0
M  END
> <PUBCHEM_COMPOUND_CID>
11494412

> <PUBCHEM_COMPOUND_CANONICALIZED>
1

> <PUBCHEM_CACTVS_COMPLEXITY>
666

> <PUBCHEM_CACTVS_HBOND_ACCEPTOR>
2

> <PUBCHEM_CACTVS_HBOND_DONOR>
2

> <PUBCHEM_CACTVS_ROTATABLE_BOND>
2

> <PUBCHEM_CACTVS_SUBSKEYS>
AAADceB7MAAAAAAAAAAAAAAAAAAAAWLFgAA8YIAAAAAAAFix/gAAHgAQAAAADQjBngQ8wPPNkACoAzV3VACCgCAxAiAI2aE4ZJgIIPLAlZGEIAhglCDIyAcdicCegAACAAACAAAAAAQAAAQAAAAAAAAAAA==

> <PUBCHEM_IUPAC_OPENEYE_NAME>
(3R,4R)-3-(1-azatricyclo[6.3.1.04,12]dodeca-2,4,6,8(12)-tetraen-3-yl)-4-(1H-indol-3-yl)pyrrolidine-2,5-dione

> <PUBCHEM_IUPAC_CAS_NAME>
(3R,4R)-3-(1-azatricyclo[6.3.1.04,12]dodeca-2,4,6,8(12)-tetraen-3-yl)-4-(1H-indol-3-yl)pyrrolidine-2,5-dione

> <PUBCHEM_IUPAC_NAME_MARKUP>
(3<I>R</I>,4<I>R</I>)-3-(1-azatricyclo[6.3.1.0<SUP>4,12</SUP>]dodeca-2,4,6,8(12)-tetraen-3-yl)-4-(1<I>H</I>-indol-3-yl)pyrrolidine-2,5-dione

> <PUBCHEM_IUPAC_NAME>
(3R,4R)-3-(1-azatricyclo[6.3.1.04,12]dodeca-2,4,6,8(12)-tetraen-3-yl)-4-(1H-indol-3-yl)pyrrolidine-2,5-dione

> <PUBCHEM_IUPAC_SYSTEMATIC_NAME>
(3R,4R)-3-(1-azatricyclo[6.3.1.04,12]dodeca-2,4,6,8(12)-tetraen-3-yl)-4-(1H-indol-3-yl)pyrrolidine-2,5-dione

> <PUBCHEM_IUPAC_TRADITIONAL_NAME>
(3R,4R)-3-(1-azatricyclo[6.3.1.04,12]dodeca-2,4,6,8(12)-tetraen-3-yl)-4-(1H-indol-3-yl)pyrrolidine-2,5-quinone

> <PUBCHEM_IUPAC_INCHI>
InChI=1S/C23H19N3O2/c27-22-19(16-11-24-18-9-2-1-7-14(16)18)20(23(28)25-22)17-12-26-10-4-6-13-5-3-8-15(17)21(13)26/h1-3,5,7-9,11-12,19-20,24H,4,6,10H2,(H,25,27,28)/t19-,20-/m0/s1

> <PUBCHEM_IUPAC_INCHIKEY>
UCEQXRCJXIVODC-PMACEKPBSA-N

> <PUBCHEM_XLOGP3_AA>
2.9

> <PUBCHEM_EXACT_MASS>
369.147726857

> <PUBCHEM_MOLECULAR_FORMULA>
C23H19N3O2

> <PUBCHEM_MOLECULAR_WEIGHT>
369.4

> <PUBCHEM_OPENEYE_CAN_SMILES>
C1CC2=C3C(=CC=C2)C(=CN3C1)C4C(C(=O)NC4=O)C5=CNC6=CC=CC=C65

> <PUBCHEM_OPENEYE_ISO_SMILES>
C1CC2=C3C(=CC=C2)C(=CN3C1)[C@H]4[C@@H](C(=O)NC4=O)C5=CNC6=CC=CC=C65

> <PUBCHEM_CACTVS_TPSA>
66.9

> <PUBCHEM_MONOISOTOPIC_WEIGHT>
369.147726857

> <PUBCHEM_TOTAL_CHARGE>
0

> <PUBCHEM_HEAVY_ATOM_COUNT>
28

> <PUBCHEM_ATOM_DEF_STEREO_COUNT>
2

> <PUBCHEM_ATOM_UDEF_STEREO_COUNT>
0

> <PUBCHEM_BOND_DEF_STEREO_COUNT>
0

> <PUBCHEM_BOND_UDEF_STEREO_COUNT>
0

> <PUBCHEM_ISOTOPIC_ATOM_COUNT>
0

> <PUBCHEM_COMPONENT_COUNT>
1

> <PUBCHEM_CACTVS_TAUTO_COUNT>
-1

> <PUBCHEM_COORDINATE_TYPE>
1
5
255

> <PUBCHEM_BONDANNOTATIONS>
10  19  8
13  21  8
14  20  8
14  22  8
19  23  8
20  24  8
20  25  8
21  23  8
24  26  8
25  27  8
26  28  8
27  28  8
3  11  8
3  9  8
5  22  8
5  24  8
6  29  6
7  30  5
8  10  8
8  11  8
9  10  8
9  13  8

$$$$
11511120
  -OEChem-11282412102D

 58 61  0     0  0  0  0  0  0999 V2000
   13.2399   -3.5272    0.0000 Cl  0  0  0  0  0  0  0  0  0  0  0  0
   14.9834   -2.5473    0.0000 F   0  0  0  0  0  0  0  0  0  0  0  0
    7.1962    2.0272    0.0000 O   0  0  0  0  0  0  0  0  0  0  0  0
    8.0622    2.5272    0.0000 O   0  0  0  0  0  0  0  0  0  0  0  0
    3.7320    1.0272    0.0000 N   0  0  0  0  0  0  0  0  0  0  0  0
    8.0622    0.5272    0.0000 N   0  0  0  0  0  0  0  0  0  0  0  0
   11.5426   -0.5074    0.0000 N   0  0  0  0  0  0  0  0  0  0  0  0
   11.5542    2.5619    0.0000 N   0  0  0  0  0  0  0  0  0  0  0  0
   12.4603    1.0064    0.0000 N   0  0  0  0  0  0  0  0  0  0  0  0
    2.0000    2.0272    0.0000 C   0  0  0  0  0  0  0  0  0  0  0  0
    2.8660    2.5272    0.0000 C   0  0  0  0  0  0  0  0  0  0  0  0
    2.0000    1.0272    0.0000 C   0  0  0  0  0  0  0  0  0  0  0  0
    3.7320    2.0272    0.0000 C   0  0  0  0  0  0  0  0  0  0  0  0
    2.8660    0.5272    0.0000 C   0  0  0  0  0  0  0  0  0  0  0  0
    4.5981    0.5272    0.0000 C   0  0  0  0  0  0  0  0  0  0  0  0
    5.4641    1.0272    0.0000 C   0  0  0  0  0  0  0  0  0  0  0  0
    6.3301    0.5272    0.0000 C   0  0  0  0  0  0  0  0  0  0  0  0
    7.1962    1.0272    0.0000 C   0  0  0  0  0  0  0  0  0  0  0  0
    8.9282    1.0272    0.0000 C   0  0  0  0  0  0  0  0  0  0  0  0
   10.6603    1.0272    0.0000 C   0  0  0  0  0  0  0  0  0  0  0  0
    9.7942    0.5272    0.0000 C   0  0  0  0  0  0  0  0  0  0  0  0
    8.9282    2.0272    0.0000 C   0  0  0  0  0  0  0  0  0  0  0  0
   10.6603    2.0272    0.0000 C   0  0  0  0  0  0  0  0  0  0  0  0
   11.5542    0.4926    0.0000 C   0  0  0  0  0  0  0  0  0  0  0  0
    9.7942    2.5272    0.0000 C   0  0  0  0  0  0  0  0  0  0  0  0
   12.4028   -1.0174    0.0000 C   0  0  0  0  0  0  0  0  0  0  0  0
   12.4603    2.0480    0.0000 C   0  0  0  0  0  0  0  0  0  0  0  0
   12.3913   -2.0173    0.0000 C   0  0  0  0  0  0  0  0  0  0  0  0
   13.2746   -0.5274    0.0000 C   0  0  0  0  0  0  0  0  0  0  0  0
    8.0622    3.5272    0.0000 C   0  0  0  0  0  0  0  0  0  0  0  0
   13.2514   -2.5273    0.0000 C   0  0  0  0  0  0  0  0  0  0  0  0
   14.1348   -1.0374    0.0000 C   0  0  0  0  0  0  0  0  0  0  0  0
   14.1232   -2.0373    0.0000 C   0  0  0  0  0  0  0  0  0  0  0  0
    1.7880    2.6098    0.0000 H   0  0  0  0  0  0  0  0  0  0  0  0
    1.3894    1.9196    0.0000 H   0  0  0  0  0  0  0  0  0  0  0  0
    3.2646    3.0022    0.0000 H   0  0  0  0  0  0  0  0  0  0  0  0
    2.4675    3.0022    0.0000 H   0  0  0  0  0  0  0  0  0  0  0  0
    1.3894    1.1349    0.0000 H   0  0  0  0  0  0  0  0  0  0  0  0
    1.7880    0.4446    0.0000 H   0  0  0  0  0  0  0  0  0  0  0  0
    4.3426    1.9196    0.0000 H   0  0  0  0  0  0  0  0  0  0  0  0
    3.9441    2.6098    0.0000 H   0  0  0  0  0  0  0  0  0  0  0  0
    2.4675    0.0523    0.0000 H   0  0  0  0  0  0  0  0  0  0  0  0
    3.2646    0.0523    0.0000 H   0  0  0  0  0  0  0  0  0  0  0  0
    4.1996    0.0523    0.0000 H   0  0  0  0  0  0  0  0  0  0  0  0
    4.9966    0.0523    0.0000 H   0  0  0  0  0  0  0  0  0  0  0  0
    5.4641    1.6472    0.0000 H   0  0  0  0  0  0  0  0  0  0  0  0
    6.3301   -0.0928    0.0000 H   0  0  0  0  0  0  0  0  0  0  0  0
    8.0622   -0.0928    0.0000 H   0  0  0  0  0  0  0  0  0  0  0  0
    9.7942   -0.0928    0.0000 H   0  0  0  0  0  0  0  0  0  0  0  0
    9.7942    3.1472    0.0000 H   0  0  0  0  0  0  0  0  0  0  0  0
   11.0021   -0.8112    0.0000 H   0  0  0  0  0  0  0  0  0  0  0  0
   12.9960    2.3601    0.0000 H   0  0  0  0  0  0  0  0  0  0  0  0
   11.8508   -2.3211    0.0000 H   0  0  0  0  0  0  0  0  0  0  0  0
   13.2817    0.0925    0.0000 H   0  0  0  0  0  0  0  0  0  0  0  0
    8.6822    3.5272    0.0000 H   0  0  0  0  0  0  0  0  0  0  0  0
    8.0622    4.1472    0.0000 H   0  0  0  0  0  0  0  0  0  0  0  0
    7.4422    3.5272    0.0000 H   0  0  0  0  0  0  0  0  0  0  0  0
   14.6752   -0.7336    0.0000 H   0  0  0  0  0  0  0  0  0  0  0  0
  1 31  1  0  0  0  0
  2 33  1  0  0  0  0
  3 18  2  0  0  0  0
  4 22  1  0  0  0  0
  4 30  1  0  0  0  0
  5 13  1  0  0  0  0
  5 14  1  0  0  0  0
  5 15  1  0  0  0  0
  6 18  1  0  0  0  0
  6 19  1  0  0  0  0
  6 48  1  0  0  0  0
  7 24  1  0  0  0  0
  7 26  1  0  0  0  0
  7 51  1  0  0  0  0
  8 23  1  0  0  0  0
  8 27  2  0  0  0  0
  9 24  2  0  0  0  0
  9 27  1  0  0  0  0
 10 11  1  0  0  0  0
 10 12  1  0  0  0  0
 10 34  1  0  0  0  0
 10 35  1  0  0  0  0
 11 13  1  0  0  0  0
 11 36  1  0  0  0  0
 11 37  1  0  0  0  0
 12 14  1  0  0  0  0
 12 38  1  0  0  0  0
 12 39  1  0  0  0  0
 13 40  1  0  0  0  0
 13 41  1  0  0  0  0
 14 42  1  0  0  0  0
 14 43  1  0  0  0  0
 15 16  1  0  0  0  0
 15 44  1  0  0  0  0
 15 45  1  0  0  0  0
 16 17  2  0  0  0  0
 16 46  1  0  0  0  0
 17 18  1  0  0  0  0
 17 47  1  0  0  0  0
 19 21  1  0  0  0  0
 19 22  2  0  0  0  0
 20 21  2  0  0  0  0
 20 23  1  0  0  0  0
 20 24  1  0  0  0  0
 21 49  1  0  0  0  0
 22 25  1  0  0  0  0
 23 25  2  0  0  0  0
 25 50  1  0  0  0  0
 26 28  2  0  0  0  0
 26 29  1  0  0  0  0
 27 52  1  0  0  0  0
 28 31  1  0  0  0  0
 28 53  1  0  0  0  0
 29 32  2  0  0  0  0
 29 54  1  0  0  0  0
 30 55  1  0  0  0  0
 30 56  1  0  0  0  0
 30 57  1  0  0  0  0
 31 33  2  0  0  0  0
 32 33  1  0  0  0  0
 32 58  1  0  0  0  0
M  END
> <PUBCHEM_COMPOUND_CID>
11511120

> <PUBCHEM_COMPOUND_CANONICALIZED>
1

> <PUBCHEM_CACTVS_COMPLEXITY>
665

> <PUBCHEM_CACTVS_HBOND_ACCEPTOR>
7

> <PUBCHEM_CACTVS_HBOND_DONOR>
2

> <PUBCHEM_CACTVS_ROTATABLE_BOND>
7

> <PUBCHEM_CACTVS_SUBSKEYS>
AAADceB7sQAEAAAAAAAAAAAAAAAAAAAAAAA8eIEAAAAAAACx9AAAHwIQAAAADA7Bni439vfIFACoAydzdACCiCkxJ6AJ2CA/btiOLuLF+9uFNChu1BvY6aeQ0AMOIACAQgICEABAAQCEBAQgAAAAAAAAAA==

> <PUBCHEM_IUPAC_OPENEYE_NAME>
(E)-N-[4-(3-chloro-4-fluoro-anilino)-7-methoxy-quinazolin-6-yl]-4-(1-piperidyl)but-2-enamide

> <PUBCHEM_IUPAC_CAS_NAME>
(E)-N-[4-(3-chloro-4-fluoroanilino)-7-methoxy-6-quinazolinyl]-4-(1-piperidinyl)-2-butenamide

> <PUBCHEM_IUPAC_NAME_MARKUP>
(<I>E</I>)-<I>N</I>-[4-(3-chloro-4-fluoroanilino)-7-methoxyquinazolin-6-yl]-4-piperidin-1-ylbut-2-enamide

> <PUBCHEM_IUPAC_NAME>
(E)-N-[4-(3-chloro-4-fluoroanilino)-7-methoxyquinazolin-6-yl]-4-piperidin-1-ylbut-2-enamide

> <PUBCHEM_IUPAC_SYSTEMATIC_NAME>
(E)-N-[4-[(3-chloranyl-4-fluoranyl-phenyl)amino]-7-methoxy-quinazolin-6-yl]-4-piperidin-1-yl-but-2-enamide

> <PUBCHEM_IUPAC_TRADITIONAL_NAME>
(E)-N-[4-(3-chloro-4-fluoro-anilino)-7-methoxy-quinazolin-6-yl]-4-piperidino-but-2-enamide

> <PUBCHEM_IUPAC_INCHI>
InChI=1S/C24H25ClFN5O2/c1-33-22-14-20-17(24(28-15-27-20)29-16-7-8-19(26)18(25)12-16)13-21(22)30-23(32)6-5-11-31-9-3-2-4-10-31/h5-8,12-15H,2-4,9-11H2,1H3,(H,30,32)(H,27,28,29)/b6-5+

> <PUBCHEM_IUPAC_INCHIKEY>
LVXJQMNHJWSHET-AATRIKPKSA-N

> <PUBCHEM_XLOGP3_AA>
4.4

> <PUBCHEM_EXACT_MASS>
469.1680809

> <PUBCHEM_MOLECULAR_FORMULA>
C24H25ClFN5O2

> <PUBCHEM_MOLECULAR_WEIGHT>
469.9

> <PUBCHEM_OPENEYE_CAN_SMILES>
COC1=C(C=C2C(=C1)N=CN=C2NC3=CC(=C(C=C3)F)Cl)NC(=O)C=CCN4CCCCC4

> <PUBCHEM_OPENEYE_ISO_SMILES>
COC1=C(C=C2C(=C1)N=CN=C2NC3=CC(=C(C=C3)F)Cl)NC(=O)/C=C/CN4CCCCC4

> <PUBCHEM_CACTVS_TPSA>
79.4

> <PUBCHEM_MONOISOTOPIC_WEIGHT>
469.1680809

> <PUBCHEM_TOTAL_CHARGE>
0

> <PUBCHEM_HEAVY_ATOM_COUNT>
33

> <PUBCHEM_ATOM_DEF_STEREO_COUNT>
0

> <PUBCHEM_ATOM_UDEF_STEREO_COUNT>
0

> <PUBCHEM_BOND_DEF_STEREO_COUNT>
1

> <PUBCHEM_BOND_UDEF_STEREO_COUNT>
0

> <PUBCHEM_ISOTOPIC_ATOM_COUNT>
0

> <PUBCHEM_COMPONENT_COUNT>
1

> <PUBCHEM_CACTVS_TAUTO_COUNT>
-1

> <PUBCHEM_COORDINATE_TYPE>
1
5
255

> <PUBCHEM_BONDANNOTATIONS>
19  21  8
19  22  8
20  21  8
20  23  8
20  24  8
22  25  8
23  25  8
26  28  8
26  29  8
28  31  8
29  32  8
31  33  8
32  33  8
8  23  8
8  27  8
9  24  8
9  27  8

$$$$
25134326
  -OEChem-11282412102D

 81 85  0     0  0  0  0  0  0999 V2000
    9.7942    3.0000    0.0000 S   0  0  0  0  0  0  0  0  0  0  0  0
    2.8660    3.0000    0.0000 O   0  0  0  0  0  0  0  0  0  0  0  0
   10.7942    3.0000    0.0000 O   0  0  0  0  0  0  0  0  0  0  0  0
    8.7942    3.0000    0.0000 O   0  0  0  0  0  0  0  0  0  0  0  0
    4.5981   -3.0000    0.0000 N   0  0  0  0  0  0  0  0  0  0  0  0
    4.5981    0.0000    0.0000 N   0  0  0  0  0  0  0  0  0  0  0  0
    4.5981   -5.0000    0.0000 N   0  0  0  0  0  0  0  0  0  0  0  0
    4.5981    4.0000    0.0000 N   0  0  0  0  0  0  0  0  0  0  0  0
    6.3301    4.0000    0.0000 N   0  0  0  0  0  0  0  0  0  0  0  0
    5.4641    5.5000    0.0000 N   0  0  0  0  0  0  0  0  0  0  0  0
    8.0622    4.0000    0.0000 N   0  0  0  0  0  0  0  0  0  0  0  0
    7.1962    5.5000    0.0000 N   0  0  0  0  0  0  0  0  0  0  0  0
    4.5981   -2.0000    0.0000 C   0  0  0  0  0  0  0  0  0  0  0  0
    3.7320   -1.5000    0.0000 C   0  0  0  0  0  0  0  0  0  0  0  0
    5.4641   -1.5000    0.0000 C   0  0  0  0  0  0  0  0  0  0  0  0
    3.7320   -0.5000    0.0000 C   0  0  0  0  0  0  0  0  0  0  0  0
    5.4641   -0.5000    0.0000 C   0  0  0  0  0  0  0  0  0  0  0  0
    5.4641   -3.5000    0.0000 C   0  0  0  0  0  0  0  0  0  0  0  0
    3.7320   -3.5000    0.0000 C   0  0  0  0  0  0  0  0  0  0  0  0
    5.4641   -4.5000    0.0000 C   0  0  0  0  0  0  0  0  0  0  0  0
    3.7320   -4.5000    0.0000 C   0  0  0  0  0  0  0  0  0  0  0  0
    4.5981    1.0000    0.0000 C   0  0  0  0  0  0  0  0  0  0  0  0
    4.5981   -6.0000    0.0000 C   0  0  0  0  0  0  0  0  0  0  0  0
    3.7320    1.5000    0.0000 C   0  0  0  0  0  0  0  0  0  0  0  0
    5.4641    1.5000    0.0000 C   0  0  0  0  0  0  0  0  0  0  0  0
    3.7320    2.5000    0.0000 C   0  0  0  0  0  0  0  0  0  0  0  0
    5.4641    2.5000    0.0000 C   0  0  0  0  0  0  0  0  0  0  0  0
    4.5981    3.0000    0.0000 C   0  0  0  0  0  0  0  0  0  0  0  0
    2.0000    2.5000    0.0000 C   0  0  0  0  0  0  0  0  0  0  0  0
    5.4641    4.5000    0.0000 C   0  0  0  0  0  0  0  0  0  0  0  0
    9.7942    2.0000    0.0000 C   0  0  0  0  0  0  0  0  0  0  0  0
    9.7942    4.0000    0.0000 C   0  0  0  0  0  0  0  0  0  0  0  0
    8.9282    4.5000    0.0000 C   0  0  0  0  0  0  0  0  0  0  0  0
   10.6603    1.5000    0.0000 C   0  0  0  0  0  0  0  0  0  0  0  0
    8.9282    1.5000    0.0000 C   0  0  0  0  0  0  0  0  0  0  0  0
   10.6603    4.5000    0.0000 C   0  0  0  0  0  0  0  0  0  0  0  0
    7.1962    4.5000    0.0000 C   0  0  0  0  0  0  0  0  0  0  0  0
    8.9282    5.5000    0.0000 C   0  0  0  0  0  0  0  0  0  0  0  0
   10.6603    5.5000    0.0000 C   0  0  0  0  0  0  0  0  0  0  0  0
    9.7942    6.0000    0.0000 C   0  0  0  0  0  0  0  0  0  0  0  0
    6.3301    6.0000    0.0000 C   0  0  0  0  0  0  0  0  0  0  0  0
    5.1350   -2.3100    0.0000 H   0  0  0  0  0  0  0  0  0  0  0  0
    3.1215   -1.3923    0.0000 H   0  0  0  0  0  0  0  0  0  0  0  0
    3.5200   -2.0826    0.0000 H   0  0  0  0  0  0  0  0  0  0  0  0
    5.6762   -2.0826    0.0000 H   0  0  0  0  0  0  0  0  0  0  0  0
    6.0747   -1.3923    0.0000 H   0  0  0  0  0  0  0  0  0  0  0  0
    3.5200    0.0826    0.0000 H   0  0  0  0  0  0  0  0  0  0  0  0
    3.1215   -0.6077    0.0000 H   0  0  0  0  0  0  0  0  0  0  0  0
    6.0747   -0.6077    0.0000 H   0  0  0  0  0  0  0  0  0  0  0  0
    5.6762    0.0826    0.0000 H   0  0  0  0  0  0  0  0  0  0  0  0
    6.0747   -3.6077    0.0000 H   0  0  0  0  0  0  0  0  0  0  0  0
    5.6762   -2.9174    0.0000 H   0  0  0  0  0  0  0  0  0  0  0  0
    3.5200   -2.9174    0.0000 H   0  0  0  0  0  0  0  0  0  0  0  0
    3.1215   -3.6077    0.0000 H   0  0  0  0  0  0  0  0  0  0  0  0
    5.6762   -5.0826    0.0000 H   0  0  0  0  0  0  0  0  0  0  0  0
    6.0747   -4.3923    0.0000 H   0  0  0  0  0  0  0  0  0  0  0  0
    3.1215   -4.3923    0.0000 H   0  0  0  0  0  0  0  0  0  0  0  0
    3.5200   -5.0826    0.0000 H   0  0  0  0  0  0  0  0  0  0  0  0
    3.9781   -6.0000    0.0000 H   0  0  0  0  0  0  0  0  0  0  0  0
    4.5981   -6.6200    0.0000 H   0  0  0  0  0  0  0  0  0  0  0  0
    5.2181   -6.0000    0.0000 H   0  0  0  0  0  0  0  0  0  0  0  0
    3.1951    1.1900    0.0000 H   0  0  0  0  0  0  0  0  0  0  0  0
    6.0010    1.1900    0.0000 H   0  0  0  0  0  0  0  0  0  0  0  0
    6.0010    2.8100    0.0000 H   0  0  0  0  0  0  0  0  0  0  0  0
    4.0611    4.3100    0.0000 H   0  0  0  0  0  0  0  0  0  0  0  0
    1.6900    3.0369    0.0000 H   0  0  0  0  0  0  0  0  0  0  0  0
    1.4631    2.1900    0.0000 H   0  0  0  0  0  0  0  0  0  0  0  0
    2.3100    1.9631    0.0000 H   0  0  0  0  0  0  0  0  0  0  0  0
    9.2573    2.3100    0.0000 H   0  0  0  0  0  0  0  0  0  0  0  0
   10.3503    0.9631    0.0000 H   0  0  0  0  0  0  0  0  0  0  0  0
   11.1972    1.1900    0.0000 H   0  0  0  0  0  0  0  0  0  0  0  0
   10.9703    2.0369    0.0000 H   0  0  0  0  0  0  0  0  0  0  0  0
    8.6182    2.0369    0.0000 H   0  0  0  0  0  0  0  0  0  0  0  0
    8.3913    1.1900    0.0000 H   0  0  0  0  0  0  0  0  0  0  0  0
    9.2382    0.9631    0.0000 H   0  0  0  0  0  0  0  0  0  0  0  0
   11.1972    4.1900    0.0000 H   0  0  0  0  0  0  0  0  0  0  0  0
    8.0622    3.3800    0.0000 H   0  0  0  0  0  0  0  0  0  0  0  0
    8.3913    5.8100    0.0000 H   0  0  0  0  0  0  0  0  0  0  0  0
   11.1972    5.8100    0.0000 H   0  0  0  0  0  0  0  0  0  0  0  0
    9.7942    6.6200    0.0000 H   0  0  0  0  0  0  0  0  0  0  0  0
    6.3301    6.6200    0.0000 H   0  0  0  0  0  0  0  0  0  0  0  0
  1  3  2  0  0  0  0
  1  4  2  0  0  0  0
  1 31  1  0  0  0  0
  1 32  1  0  0  0  0
  2 26  1  0  0  0  0
  2 29  1  0  0  0  0
  5 13  1  0  0  0  0
  5 18  1  0  0  0  0
  5 19  1  0  0  0  0
  6 16  1  0  0  0  0
  6 17  1  0  0  0  0
  6 22  1  0  0  0  0
  7 20  1  0  0  0  0
  7 21  1  0  0  0  0
  7 23  1  0  0  0  0
  8 28  1  0  0  0  0
  8 30  1  0  0  0  0
  8 65  1  0  0  0  0
  9 30  1  0  0  0  0
  9 37  2  0  0  0  0
 10 30  2  0  0  0  0
 10 41  1  0  0  0  0
 11 33  1  0  0  0  0
 11 37  1  0  0  0  0
 11 77  1  0  0  0  0
 12 37  1  0  0  0  0
 12 41  2  0  0  0  0
 13 14  1  0  0  0  0
 13 15  1  0  0  0  0
 13 42  1  0  0  0  0
 14 16  1  0  0  0  0
 14 43  1  0  0  0  0
 14 44  1  0  0  0  0
 15 17  1  0  0  0  0
 15 45  1  0  0  0  0
 15 46  1  0  0  0  0
 16 47  1  0  0  0  0
 16 48  1  0  0  0  0
 17 49  1  0  0  0  0
 17 50  1  0  0  0  0
 18 20  1  0  0  0  0
 18 51  1  0  0  0  0
 18 52  1  0  0  0  0
 19 21  1  0  0  0  0
 19 53  1  0  0  0  0
 19 54  1  0  0  0  0
 20 55  1  0  0  0  0
 20 56  1  0  0  0  0
 21 57  1  0  0  0  0
 21 58  1  0  0  0  0
 22 24  2  0  0  0  0
 22 25  1  0  0  0  0
 23 59  1  0  0  0  0
 23 60  1  0  0  0  0
 23 61  1  0  0  0  0
 24 26  1  0  0  0  0
 24 62  1  0  0  0  0
 25 27  2  0  0  0  0
 25 63  1  0  0  0  0
 26 28  2  0  0  0  0
 27 28  1  0  0  0  0
 27 64  1  0  0  0  0
 29 66  1  0  0  0  0
 29 67  1  0  0  0  0
 29 68  1  0  0  0  0
 31 34  1  0  0  0  0
 31 35  1  0  0  0  0
 31 69  1  0  0  0  0
 32 33  1  0  0  0  0
 32 36  2  0  0  0  0
 33 38  2  0  0  0  0
 34 70  1  0  0  0  0
 34 71  1  0  0  0  0
 34 72  1  0  0  0  0
 35 73  1  0  0  0  0
 35 74  1  0  0  0  0
 35 75  1  0  0  0  0
 36 39  1  0  0  0  0
 36 76  1  0  0  0  0
 38 40  1  0  0  0  0
 38 78  1  0  0  0  0
 39 40  2  0  0  0  0
 39 79  1  0  0  0  0
 40 80  1  0  0  0  0
 41 81  1  0  0  0  0
M  END
> <PUBCHEM_COMPOUND_CID>
25134326

> <PUBCHEM_COMPOUND_CANONICALIZED>
1

> <PUBCHEM_CACTVS_COMPLEXITY>
904

> <PUBCHEM_CACTVS_HBOND_ACCEPTOR>
11

> <PUBCHEM_CACTVS_HBOND_DONOR>
2

> <PUBCHEM_CACTVS_ROTATABLE_BOND>
9

> <PUBCHEM_CACTVS_SUBSKEYS>
AAADcfB78ABAAAAAAAAAAAAAAAAAAAAAAAA8eLECAAAAAAAB0AAAHgQQAAAACCzF0Aa314fIFAqgACRDZHDCCAkxKpAJyBwPbIiObiLk+ZuVMChu0Bv46CeQUAMAAACAAgAAEQAAAQAEAAAiAAAAAAAAAA==

> <PUBCHEM_IUPAC_OPENEYE_NAME>
N4-(2-isopropylsulfonylphenyl)-N2-[2-methoxy-4-[4-(4-methylpiperazin-1-yl)-1-piperidyl]phenyl]-1,3,5-triazine-2,4-diamine

> <PUBCHEM_IUPAC_CAS_NAME>
N2-[2-methoxy-4-[4-(4-methyl-1-piperazinyl)-1-piperidinyl]phenyl]-N4-(2-propan-2-ylsulfonylphenyl)-1,3,5-triazine-2,4-diamine

> <PUBCHEM_IUPAC_NAME_MARKUP>
2-<I>N</I>-[2-methoxy-4-[4-(4-methylpiperazin-1-yl)piperidin-1-yl]phenyl]-4-<I>N</I>-(2-propan-2-ylsulfonylphenyl)-1,3,5-triazine-2,4-diamine

> <PUBCHEM_IUPAC_NAME>
2-N-[2-methoxy-4-[4-(4-methylpiperazin-1-yl)piperidin-1-yl]phenyl]-4-N-(2-propan-2-ylsulfonylphenyl)-1,3,5-triazine-2,4-diamine

> <PUBCHEM_IUPAC_SYSTEMATIC_NAME>
N2-[2-methoxy-4-[4-(4-methylpiperazin-1-yl)piperidin-1-yl]phenyl]-N4-(2-propan-2-ylsulfonylphenyl)-1,3,5-triazine-2,4-diamine

> <PUBCHEM_IUPAC_TRADITIONAL_NAME>
[4-(2-isopropylsulfonylanilino)-s-triazin-2-yl]-[2-methoxy-4-[4-(4-methylpiperazino)piperidino]phenyl]amine

> <PUBCHEM_IUPAC_INCHI>
InChI=1S/C29H40N8O3S/c1-21(2)41(38,39)27-8-6-5-7-25(27)33-29-31-20-30-28(34-29)32-24-10-9-23(19-26(24)40-4)36-13-11-22(12-14-36)37-17-15-35(3)16-18-37/h5-10,19-22H,11-18H2,1-4H3,(H2,30,31,32,33,34)

> <PUBCHEM_IUPAC_INCHIKEY>
MGGBYMDAPCCKCT-UHFFFAOYSA-N

> <PUBCHEM_XLOGP3_AA>
4.8

> <PUBCHEM_EXACT_MASS>
580.29440834

> <PUBCHEM_MOLECULAR_FORMULA>
C29H40N8O3S

> <PUBCHEM_MOLECULAR_WEIGHT>
580.7

> <PUBCHEM_OPENEYE_CAN_SMILES>
CC(C)S(=O)(=O)C1=CC=CC=C1NC2=NC(=NC=N2)NC3=C(C=C(C=C3)N4CCC(CC4)N5CCN(CC5)C)OC

> <PUBCHEM_OPENEYE_ISO_SMILES>
CC(C)S(=O)(=O)C1=CC=CC=C1NC2=NC(=NC=N2)NC3=C(C=C(C=C3)N4CCC(CC4)N5CCN(CC5)C)OC

> <PUBCHEM_CACTVS_TPSA>
124

> <PUBCHEM_MONOISOTOPIC_WEIGHT>
580.29440834

> <PUBCHEM_TOTAL_CHARGE>
0

> <PUBCHEM_HEAVY_ATOM_COUNT>
41

> <PUBCHEM_ATOM_DEF_STEREO_COUNT>
0

> <PUBCHEM_ATOM_UDEF_STEREO_COUNT>
0

> <PUBCHEM_BOND_DEF_STEREO_COUNT>
0

> <PUBCHEM_BOND_UDEF_STEREO_COUNT>
0

> <PUBCHEM_ISOTOPIC_ATOM_COUNT>
0

> <PUBCHEM_COMPONENT_COUNT>
1

> <PUBCHEM_CACTVS_TAUTO_COUNT>
-1

> <PUBCHEM_COORDINATE_TYPE>
1
5
255

> <PUBCHEM_BONDANNOTATIONS>
10  30  8
10  41  8
12  37  8
12  41  8
22  24  8
22  25  8
24  26  8
25  27  8
26  28  8
27  28  8
32  33  8
32  36  8
33  38  8
36  39  8
38  40  8
39  40  8
9  30  8
9  37  8

$$$$
11154925
  -OEChem-11282412102D

 56 59  0     1  0  0  0  0  0999 V2000
   12.2820   -0.3409    0.0000 F   0  0  0  0  0  0  0  0  0  0  0  0
    7.1200    0.6000    0.0000 O   0  0  0  0  0  0  0  0  0  0  0  0
   10.5500   -1.3409    0.0000 O   0  0  0  0  0  0  0  0  0  0  0  0
    4.6200    1.4660    0.0000 O   0  0  0  0  0  0  0  0  0  0  0  0
    4.6200    3.1980    0.0000 O   0  0  0  0  0  0  0  0  0  0  0  0
    7.9519   -1.8409    0.0000 N   0  0  0  0  0  0  0  0  0  0  0  0
   14.0943   -3.1457    0.0000 N   0  0  0  0  0  0  0  0  0  0  0  0
    7.9519   -2.8409    0.0000 N   0  0  0  0  0  0  0  0  0  0  0  0
    9.6840   -2.8409    0.0000 N   0  0  0  0  0  0  0  0  0  0  0  0
    2.6200    3.1980    0.0000 N   0  0  0  0  0  0  0  0  0  0  0  0
    8.8179   -1.3409    0.0000 C   0  0  0  0  0  0  0  0  0  0  0  0
    8.6087   -0.3691    0.0000 C   0  0  0  0  0  0  0  0  0  0  0  0
    7.6200   -0.2661    0.0000 C   0  0  0  0  0  0  0  0  0  0  0  0
    5.6200    1.4660    0.0000 C   0  0  1  0  0  0  0  0  0  0  0  0
    6.1200    0.6000    0.0000 C   0  0  0  0  0  0  0  0  0  0  0  0
    7.2149   -1.1738    0.0000 C   0  0  0  0  0  0  0  0  0  0  0  0
   13.1481   -1.8409    0.0000 C   0  0  0  0  0  0  0  0  0  0  0  0
    9.6840   -1.8409    0.0000 C   0  0  0  0  0  0  0  0  0  0  0  0
   13.1481   -2.8409    0.0000 C   0  0  0  0  0  0  0  0  0  0  0  0
    9.2766    0.3752    0.0000 C   0  0  0  0  0  0  0  0  0  0  0  0
   11.4160   -1.8409    0.0000 C   0  0  0  0  0  0  0  0  0  0  0  0
   14.6779   -2.3409    0.0000 C   0  0  0  0  0  0  0  0  0  0  0  0
   12.2820   -1.3409    0.0000 C   0  0  0  0  0  0  0  0  0  0  0  0
   14.0943   -1.5362    0.0000 C   0  0  0  0  0  0  0  0  0  0  0  0
   12.2820   -3.3409    0.0000 C   0  0  0  0  0  0  0  0  0  0  0  0
    6.1200    2.3320    0.0000 C   0  0  0  0  0  0  0  0  0  0  0  0
   11.4160   -2.8409    0.0000 C   0  0  0  0  0  0  0  0  0  0  0  0
   15.6779   -2.3409    0.0000 C   0  0  0  0  0  0  0  0  0  0  0  0
    3.1200    2.3320    0.0000 C   0  0  2  0  0  0  0  0  0  0  0  0
    8.8179   -3.3409    0.0000 C   0  0  0  0  0  0  0  0  0  0  0  0
    4.1200    2.3320    0.0000 C   0  0  0  0  0  0  0  0  0  0  0  0
    2.6200    1.4660    0.0000 C   0  0  0  0  0  0  0  0  0  0  0  0
    5.3100    2.0029    0.0000 H   0  0  0  0  0  0  0  0  0  0  0  0
    5.5374    0.3879    0.0000 H   0  0  0  0  0  0  0  0  0  0  0  0
    6.2277   -0.0106    0.0000 H   0  0  0  0  0  0  0  0  0  0  0  0
    6.6082   -1.3017    0.0000 H   0  0  0  0  0  0  0  0  0  0  0  0
    9.7380   -0.0389    0.0000 H   0  0  0  0  0  0  0  0  0  0  0  0
    9.6906    0.8367    0.0000 H   0  0  0  0  0  0  0  0  0  0  0  0
    8.8151    0.7893    0.0000 H   0  0  0  0  0  0  0  0  0  0  0  0
   14.2869   -0.9469    0.0000 H   0  0  0  0  0  0  0  0  0  0  0  0
   14.2869   -3.7350    0.0000 H   0  0  0  0  0  0  0  0  0  0  0  0
   12.2820   -3.9609    0.0000 H   0  0  0  0  0  0  0  0  0  0  0  0
    6.6569    2.0220    0.0000 H   0  0  0  0  0  0  0  0  0  0  0  0
    6.4300    2.8690    0.0000 H   0  0  0  0  0  0  0  0  0  0  0  0
    5.5831    2.6420    0.0000 H   0  0  0  0  0  0  0  0  0  0  0  0
   10.8791   -3.1509    0.0000 H   0  0  0  0  0  0  0  0  0  0  0  0
   15.6779   -2.9609    0.0000 H   0  0  0  0  0  0  0  0  0  0  0  0
   16.2979   -2.3409    0.0000 H   0  0  0  0  0  0  0  0  0  0  0  0
   15.6779   -1.7209    0.0000 H   0  0  0  0  0  0  0  0  0  0  0  0
    2.5000    2.3320    0.0000 H   0  0  0  0  0  0  0  0  0  0  0  0
    8.8179   -3.9609    0.0000 H   0  0  0  0  0  0  0  0  0  0  0  0
    2.0831    1.7760    0.0000 H   0  0  0  0  0  0  0  0  0  0  0  0
    2.3100    0.9291    0.0000 H   0  0  0  0  0  0  0  0  0  0  0  0
    3.1569    1.1560    0.0000 H   0  0  0  0  0  0  0  0  0  0  0  0
    2.0000    3.1980    0.0000 H   0  0  0  0  0  0  0  0  0  0  0  0
    2.9300    3.7350    0.0000 H   0  0  0  0  0  0  0  0  0  0  0  0
  1 23  1  0  0  0  0
  2 13  1  0  0  0  0
  2 15  1  0  0  0  0
  3 18  1  0  0  0  0
  3 21  1  0  0  0  0
 14  4  1  6  0  0  0
  4 31  1  0  0  0  0
  5 31  2  0  0  0  0
  6  8  1  0  0  0  0
  6 11  1  0  0  0  0
  6 16  1  0  0  0  0
  7 19  1  0  0  0  0
  7 22  1  0  0  0  0
  7 41  1  0  0  0  0
  8 30  2  0  0  0  0
  9 18  2  0  0  0  0
  9 30  1  0  0  0  0
 29 10  1  6  0  0  0
 10 55  1  0  0  0  0
 10 56  1  0  0  0  0
 11 12  2  0  0  0  0
 11 18  1  0  0  0  0
 12 13  1  0  0  0  0
 12 20  1  0  0  0  0
 13 16  2  0  0  0  0
 14 15  1  0  0  0  0
 14 26  1  0  0  0  0
 14 33  1  0  0  0  0
 15 34  1  0  0  0  0
 15 35  1  0  0  0  0
 16 36  1  0  0  0  0
 17 19  2  0  0  0  0
 17 23  1  0  0  0  0
 17 24  1  0  0  0  0
 19 25  1  0  0  0  0
 20 37  1  0  0  0  0
 20 38  1  0  0  0  0
 20 39  1  0  0  0  0
 21 23  2  0  0  0  0
 21 27  1  0  0  0  0
 22 24  2  0  0  0  0
 22 28  1  0  0  0  0
 24 40  1  0  0  0  0
 25 27  2  0  0  0  0
 25 42  1  0  0  0  0
 26 43  1  0  0  0  0
 26 44  1  0  0  0  0
 26 45  1  0  0  0  0
 27 46  1  0  0  0  0
 28 47  1  0  0  0  0
 28 48  1  0  0  0  0
 28 49  1  0  0  0  0
 29 31  1  0  0  0  0
 29 32  1  0  0  0  0
 29 50  1  0  0  0  0
 30 51  1  0  0  0  0
 32 52  1  0  0  0  0
 32 53  1  0  0  0  0
 32 54  1  0  0  0  0
M  END
> <PUBCHEM_COMPOUND_CID>
11154925

> <PUBCHEM_COMPOUND_CANONICALIZED>
1

> <PUBCHEM_CACTVS_COMPLEXITY>
660

> <PUBCHEM_CACTVS_HBOND_ACCEPTOR>
8

> <PUBCHEM_CACTVS_HBOND_DONOR>
2

> <PUBCHEM_CACTVS_ROTATABLE_BOND>
8

> <PUBCHEM_CACTVS_SUBSKEYS>
AAADceB7uQAAAAAAAAAAAAAAAAAAAWLAAAA8QAAAAAAAAFgB/gAAHwAYAAAADDzhng4/3vbJlACqAzT3bASSjC8x8qAd2aG/fJiPbuLEuZufuCjm2Bva6Cfw0LMOAEABAAACAAAAgAIAAAQAAAAAAAAAAA==

> <PUBCHEM_IUPAC_OPENEYE_NAME>
[(1R)-2-[4-[(4-fluoro-2-methyl-1H-indol-5-yl)oxy]-5-methyl-pyrrolo[2,1-f][1,2,4]triazin-6-yl]oxy-1-methyl-ethyl] (2S)-2-aminopropanoate

> <PUBCHEM_IUPAC_CAS_NAME>
(2S)-2-aminopropanoic acid [(2R)-1-[[4-[(4-fluoro-2-methyl-1H-indol-5-yl)oxy]-5-methyl-6-pyrrolo[2,1-f][1,2,4]triazinyl]oxy]propan-2-yl] ester

> <PUBCHEM_IUPAC_NAME_MARKUP>
[(2<I>R</I>)-1-[4-[(4-fluoro-2-methyl-1<I>H</I>-indol-5-yl)oxy]-5-methylpyrrolo[2,1-f][1,2,4]triazin-6-yl]oxypropan-2-yl] (2<I>S</I>)-2-aminopropanoate

> <PUBCHEM_IUPAC_NAME>
[(2R)-1-[4-[(4-fluoro-2-methyl-1H-indol-5-yl)oxy]-5-methylpyrrolo[2,1-f][1,2,4]triazin-6-yl]oxypropan-2-yl] (2S)-2-aminopropanoate

> <PUBCHEM_IUPAC_SYSTEMATIC_NAME>
[(2R)-1-[4-[(4-fluoranyl-2-methyl-1H-indol-5-yl)oxy]-5-methyl-pyrrolo[2,1-f][1,2,4]triazin-6-yl]oxypropan-2-yl] (2S)-2-azanylpropanoate

> <PUBCHEM_IUPAC_TRADITIONAL_NAME>
(2S)-2-aminopropionic acid [(1R)-2-[4-[(4-fluoro-2-methyl-1H-indol-5-yl)oxy]-5-methyl-pyrrolo[2,1-f][1,2,4]triazin-6-yl]oxy-1-methyl-ethyl] ester

> <PUBCHEM_IUPAC_INCHI>
InChI=1S/C22H24FN5O4/c1-11-7-15-16(27-11)5-6-17(19(15)23)32-21-20-13(3)18(8-28(20)26-10-25-21)30-9-12(2)31-22(29)14(4)24/h5-8,10,12,14,27H,9,24H2,1-4H3/t12-,14+/m1/s1

> <PUBCHEM_IUPAC_INCHIKEY>
LTEJRLHKIYCEOX-OCCSQVGLSA-N

> <PUBCHEM_XLOGP3_AA>
3.1

> <PUBCHEM_EXACT_MASS>
441.18123243

> <PUBCHEM_MOLECULAR_FORMULA>
C22H24FN5O4

> <PUBCHEM_MOLECULAR_WEIGHT>
441.5

> <PUBCHEM_OPENEYE_CAN_SMILES>
CC1=CC2=C(N1)C=CC(=C2F)OC3=NC=NN4C3=C(C(=C4)OCC(C)OC(=O)C(C)N)C

> <PUBCHEM_OPENEYE_ISO_SMILES>
CC1=CC2=C(N1)C=CC(=C2F)OC3=NC=NN4C3=C(C(=C4)OC[C@@H](C)OC(=O)[C@H](C)N)C

> <PUBCHEM_CACTVS_TPSA>
117

> <PUBCHEM_MONOISOTOPIC_WEIGHT>
441.18123243

> <PUBCHEM_TOTAL_CHARGE>
0

> <PUBCHEM_HEAVY_ATOM_COUNT>
32

> <PUBCHEM_ATOM_DEF_STEREO_COUNT>
2

> <PUBCHEM_ATOM_UDEF_STEREO_COUNT>
0

> <PUBCHEM_BOND_DEF_STEREO_COUNT>
0

> <PUBCHEM_BOND_UDEF_STEREO_COUNT>
0

> <PUBCHEM_ISOTOPIC_ATOM_COUNT>
0

> <PUBCHEM_COMPONENT_COUNT>
1

> <PUBCHEM_CACTVS_TAUTO_COUNT>
-1

> <PUBCHEM_COORDINATE_TYPE>
1
5
255

> <PUBCHEM_BONDANNOTATIONS>
29  10  6
11  12  8
11  18  8
12  13  8
13  16  8
17  19  8
17  23  8
17  24  8
19  25  8
21  23  8
21  27  8
22  24  8
25  27  8
14  4  6
6  11  8
6  16  8
6  8  8
7  19  8
7  22  8
8  30  8
9  18  8
9  30  8

$$$$
11691242
  -OEChem-11282412102D

 50 53  0     0  0  0  0  0  0999 V2000
    2.0000    1.8091    0.0000 Br  0  0  0  0  0  0  0  0  0  0  0  0
    4.5981    0.3091    0.0000 O   0  0  0  0  0  0  0  0  0  0  0  0
    5.4641    3.8091    0.0000 O   0  0  0  0  0  0  0  0  0  0  0  0
    8.1424   -2.4956    0.0000 N   0  0  0  0  0  0  0  0  0  0  0  0
    6.3301    0.3091    0.0000 N   0  0  0  0  0  0  0  0  0  0  0  0
    5.4641    1.8091    0.0000 N   0  0  0  0  0  0  0  0  0  0  0  0
   11.3886   -4.0648    0.0000 N   0  0  0  0  0  0  0  0  0  0  0  0
   11.7457   -2.3700    0.0000 N   0  0  0  0  0  0  0  0  0  0  0  0
    7.1962   -2.1909    0.0000 C   0  0  0  0  0  0  0  0  0  0  0  0
    7.1962   -1.1909    0.0000 C   0  0  0  0  0  0  0  0  0  0  0  0
    8.4530   -3.4462    0.0000 C   0  0  0  0  0  0  0  0  0  0  0  0
    8.7260   -1.6909    0.0000 C   0  0  0  0  0  0  0  0  0  0  0  0
    6.3301   -0.6909    0.0000 C   0  0  0  0  0  0  0  0  0  0  0  0
    8.1424   -0.8862    0.0000 C   0  0  0  0  0  0  0  0  0  0  0  0
    6.3301   -2.6909    0.0000 C   0  0  0  0  0  0  0  0  0  0  0  0
    9.4315   -3.6524    0.0000 C   0  0  0  0  0  0  0  0  0  0  0  0
    5.4641   -1.1909    0.0000 C   0  0  0  0  0  0  0  0  0  0  0  0
    5.4641   -2.1909    0.0000 C   0  0  0  0  0  0  0  0  0  0  0  0
   10.0994   -2.9081    0.0000 C   0  0  0  0  0  0  0  0  0  0  0  0
    9.7422   -4.6029    0.0000 C   0  0  0  0  0  0  0  0  0  0  0  0
    5.4641    0.8091    0.0000 C   0  0  0  0  0  0  0  0  0  0  0  0
   11.0779   -3.1143    0.0000 C   0  0  0  0  0  0  0  0  0  0  0  0
   10.7207   -4.8091    0.0000 C   0  0  0  0  0  0  0  0  0  0  0  0
    4.5981    2.3091    0.0000 C   0  0  0  0  0  0  0  0  0  0  0  0
    4.5981    3.3091    0.0000 C   0  0  0  0  0  0  0  0  0  0  0  0
    3.7320    1.8091    0.0000 C   0  0  0  0  0  0  0  0  0  0  0  0
    3.7320    3.8091    0.0000 C   0  0  0  0  0  0  0  0  0  0  0  0
    2.8660    2.3091    0.0000 C   0  0  0  0  0  0  0  0  0  0  0  0
    2.8660    3.3091    0.0000 C   0  0  0  0  0  0  0  0  0  0  0  0
    5.4641    4.8091    0.0000 C   0  0  0  0  0  0  0  0  0  0  0  0
    7.8392   -3.5335    0.0000 H   0  0  0  0  0  0  0  0  0  0  0  0
    8.4325   -4.0658    0.0000 H   0  0  0  0  0  0  0  0  0  0  0  0
    9.3460   -1.6909    0.0000 H   0  0  0  0  0  0  0  0  0  0  0  0
    8.3350   -0.2968    0.0000 H   0  0  0  0  0  0  0  0  0  0  0  0
    6.3301   -3.3109    0.0000 H   0  0  0  0  0  0  0  0  0  0  0  0
    4.9272   -0.8809    0.0000 H   0  0  0  0  0  0  0  0  0  0  0  0
    4.9272   -2.5009    0.0000 H   0  0  0  0  0  0  0  0  0  0  0  0
    6.8671    0.6191    0.0000 H   0  0  0  0  0  0  0  0  0  0  0  0
    9.9068   -2.3187    0.0000 H   0  0  0  0  0  0  0  0  0  0  0  0
    9.3281   -5.0644    0.0000 H   0  0  0  0  0  0  0  0  0  0  0  0
   10.9133   -5.3984    0.0000 H   0  0  0  0  0  0  0  0  0  0  0  0
    6.0010    2.1191    0.0000 H   0  0  0  0  0  0  0  0  0  0  0  0
    3.7320    1.1891    0.0000 H   0  0  0  0  0  0  0  0  0  0  0  0
    3.7320    4.4291    0.0000 H   0  0  0  0  0  0  0  0  0  0  0  0
   12.3524   -2.4978    0.0000 H   0  0  0  0  0  0  0  0  0  0  0  0
   11.5531   -1.7807    0.0000 H   0  0  0  0  0  0  0  0  0  0  0  0
    2.3291    3.6191    0.0000 H   0  0  0  0  0  0  0  0  0  0  0  0
    6.0841    4.8091    0.0000 H   0  0  0  0  0  0  0  0  0  0  0  0
    5.4641    5.4291    0.0000 H   0  0  0  0  0  0  0  0  0  0  0  0
    4.8441    4.8091    0.0000 H   0  0  0  0  0  0  0  0  0  0  0  0
  1 28  1  0  0  0  0
  2 21  2  0  0  0  0
  3 25  1  0  0  0  0
  3 30  1  0  0  0  0
  4  9  1  0  0  0  0
  4 11  1  0  0  0  0
  4 12  1  0  0  0  0
  5 13  1  0  0  0  0
  5 21  1  0  0  0  0
  5 38  1  0  0  0  0
  6 21  1  0  0  0  0
  6 24  1  0  0  0  0
  6 42  1  0  0  0  0
  7 22  2  0  0  0  0
  7 23  1  0  0  0  0
  8 22  1  0  0  0  0
  8 45  1  0  0  0  0
  8 46  1  0  0  0  0
  9 10  1  0  0  0  0
  9 15  2  0  0  0  0
 10 13  2  0  0  0  0
 10 14  1  0  0  0  0
 11 16  1  0  0  0  0
 11 31  1  0  0  0  0
 11 32  1  0  0  0  0
 12 14  2  0  0  0  0
 12 33  1  0  0  0  0
 13 17  1  0  0  0  0
 14 34  1  0  0  0  0
 15 18  1  0  0  0  0
 15 35  1  0  0  0  0
 16 19  2  0  0  0  0
 16 20  1  0  0  0  0
 17 18  2  0  0  0  0
 17 36  1  0  0  0  0
 18 37  1  0  0  0  0
 19 22  1  0  0  0  0
 19 39  1  0  0  0  0
 20 23  2  0  0  0  0
 20 40  1  0  0  0  0
 23 41  1  0  0  0  0
 24 25  2  0  0  0  0
 24 26  1  0  0  0  0
 25 27  1  0  0  0  0
 26 28  2  0  0  0  0
 26 43  1  0  0  0  0
 27 29  2  0  0  0  0
 27 44  1  0  0  0  0
 28 29  1  0  0  0  0
 29 47  1  0  0  0  0
 30 48  1  0  0  0  0
 30 49  1  0  0  0  0
 30 50  1  0  0  0  0
M  END
> <PUBCHEM_COMPOUND_CID>
11691242

> <PUBCHEM_COMPOUND_CANONICALIZED>
1

> <PUBCHEM_CACTVS_COMPLEXITY>
582

> <PUBCHEM_CACTVS_HBOND_ACCEPTOR>
4

> <PUBCHEM_CACTVS_HBOND_DONOR>
3

> <PUBCHEM_CACTVS_ROTATABLE_BOND>
5

> <PUBCHEM_CACTVS_SUBSKEYS>
AAADceB7sAAAEAAAAAAAAAAAAAAAAWAAAAA8YIAAAAAAAFgB/AAAHgBQAAABrAzBngY/9vPMFACoAzZndACCiCkxIiQI2CA/bLiOJuLE8duFNChs1BPY6jeQwIAOABAAAAUCEAAAIAAACgQgAAAAAAAAAA==

> <PUBCHEM_IUPAC_OPENEYE_NAME>
1-[1-[(2-amino-4-pyridyl)methyl]indol-4-yl]-3-(5-bromo-2-methoxy-phenyl)urea

> <PUBCHEM_IUPAC_CAS_NAME>
1-[1-[(2-amino-4-pyridinyl)methyl]-4-indolyl]-3-(5-bromo-2-methoxyphenyl)urea

> <PUBCHEM_IUPAC_NAME_MARKUP>
1-[1-[(2-aminopyridin-4-yl)methyl]indol-4-yl]-3-(5-bromo-2-methoxyphenyl)urea

> <PUBCHEM_IUPAC_NAME>
1-[1-[(2-aminopyridin-4-yl)methyl]indol-4-yl]-3-(5-bromo-2-methoxyphenyl)urea

> <PUBCHEM_IUPAC_SYSTEMATIC_NAME>
1-[1-[(2-azanylpyridin-4-yl)methyl]indol-4-yl]-3-(5-bromanyl-2-methoxy-phenyl)urea

> <PUBCHEM_IUPAC_TRADITIONAL_NAME>
1-[1-[(2-amino-4-pyridyl)methyl]indol-4-yl]-3-(5-bromo-2-methoxy-phenyl)urea

> <PUBCHEM_IUPAC_INCHI>
InChI=1S/C22H20BrN5O2/c1-30-20-6-5-15(23)12-18(20)27-22(29)26-17-3-2-4-19-16(17)8-10-28(19)13-14-7-9-25-21(24)11-14/h2-12H,13H2,1H3,(H2,24,25)(H2,26,27,29)

> <PUBCHEM_IUPAC_INCHIKEY>
ZXBFYBLSJMEBEP-UHFFFAOYSA-N

> <PUBCHEM_XLOGP3_AA>
3.4

> <PUBCHEM_EXACT_MASS>
465.08004

> <PUBCHEM_MOLECULAR_FORMULA>
C22H20BrN5O2

> <PUBCHEM_MOLECULAR_WEIGHT>
466.3

> <PUBCHEM_OPENEYE_CAN_SMILES>
COC1=C(C=C(C=C1)Br)NC(=O)NC2=C3C=CN(C3=CC=C2)CC4=CC(=NC=C4)N

> <PUBCHEM_OPENEYE_ISO_SMILES>
COC1=C(C=C(C=C1)Br)NC(=O)NC2=C3C=CN(C3=CC=C2)CC4=CC(=NC=C4)N

> <PUBCHEM_CACTVS_TPSA>
94.2

> <PUBCHEM_MONOISOTOPIC_WEIGHT>
465.08004

> <PUBCHEM_TOTAL_CHARGE>
0

> <PUBCHEM_HEAVY_ATOM_COUNT>
30

> <PUBCHEM_ATOM_DEF_STEREO_COUNT>
0

> <PUBCHEM_ATOM_UDEF_STEREO_COUNT>
0

> <PUBCHEM_BOND_DEF_STEREO_COUNT>
0

> <PUBCHEM_BOND_UDEF_STEREO_COUNT>
0

> <PUBCHEM_ISOTOPIC_ATOM_COUNT>
0

> <PUBCHEM_COMPONENT_COUNT>
1

> <PUBCHEM_CACTVS_TAUTO_COUNT>
-1

> <PUBCHEM_COORDINATE_TYPE>
1
5
255

> <PUBCHEM_BONDANNOTATIONS>
10  13  8
10  14  8
12  14  8
13  17  8
15  18  8
16  19  8
16  20  8
17  18  8
19  22  8
20  23  8
24  25  8
24  26  8
25  27  8
26  28  8
27  29  8
28  29  8
4  12  8
4  9  8
7  22  8
7  23  8
9  10  8
9  15  8

$$$$
24856436
  -OEChem-11282412102D

 69 73  0     0  0  0  0  0  0999 V2000
   15.1633   -2.5261    0.0000 O   0  0  0  0  0  0  0  0  0  0  0  0
   11.9171    2.5536    0.0000 O   0  0  0  0  0  0  0  0  0  0  0  0
    4.5981    1.7984    0.0000 N   0  0  0  0  0  0  0  0  0  0  0  0
    2.8660    2.7984    0.0000 N   0  0  0  0  0  0  0  0  0  0  0  0
   11.6065   -0.0064    0.0000 N   0  0  0  0  0  0  0  0  0  0  0  0
   12.1901    0.7984    0.0000 N   0  0  0  0  0  0  0  0  0  0  0  0
    8.0622   -0.2016    0.0000 N   0  0  0  0  0  0  0  0  0  0  0  0
    9.7942   -0.2016    0.0000 N   0  0  0  0  0  0  0  0  0  0  0  0
   12.8956   -1.1631    0.0000 N   0  0  0  0  0  0  0  0  0  0  0  0
    8.9282    1.2984    0.0000 N   0  0  0  0  0  0  0  0  0  0  0  0
    4.5981    2.7984    0.0000 C   0  0  0  0  0  0  0  0  0  0  0  0
    3.7320    1.2984    0.0000 C   0  0  0  0  0  0  0  0  0  0  0  0
    3.7320    3.2984    0.0000 C   0  0  0  0  0  0  0  0  0  0  0  0
    2.8660    1.7984    0.0000 C   0  0  0  0  0  0  0  0  0  0  0  0
    5.4641    1.2984    0.0000 C   0  0  0  0  0  0  0  0  0  0  0  0
    2.0000    3.2984    0.0000 C   0  0  0  0  0  0  0  0  0  0  0  0
    5.4641    0.2984    0.0000 C   0  0  0  0  0  0  0  0  0  0  0  0
    6.3301    1.7984    0.0000 C   0  0  0  0  0  0  0  0  0  0  0  0
   10.6603    0.2984    0.0000 C   0  0  0  0  0  0  0  0  0  0  0  0
    7.1962    0.2984    0.0000 C   0  0  0  0  0  0  0  0  0  0  0  0
    6.3301   -0.2016    0.0000 C   0  0  0  0  0  0  0  0  0  0  0  0
    7.1962    1.2984    0.0000 C   0  0  0  0  0  0  0  0  0  0  0  0
   10.6603    1.2984    0.0000 C   0  0  0  0  0  0  0  0  0  0  0  0
   14.1848   -2.3199    0.0000 C   0  0  0  0  0  0  0  0  0  0  0  0
   11.9171   -0.9569    0.0000 C   0  0  0  0  0  0  0  0  0  0  0  0
   11.6065    1.6031    0.0000 C   0  0  0  0  0  0  0  0  0  0  0  0
   13.2063   -2.1136    0.0000 C   0  0  0  0  0  0  0  0  0  0  0  0
   13.1901    0.7984    0.0000 C   0  0  0  0  0  0  0  0  0  0  0  0
    8.9282    0.2984    0.0000 C   0  0  0  0  0  0  0  0  0  0  0  0
    9.7942    1.7984    0.0000 C   0  0  0  0  0  0  0  0  0  0  0  0
   11.2493   -1.7012    0.0000 C   0  0  0  0  0  0  0  0  0  0  0  0
   13.9786   -3.2984    0.0000 C   0  0  0  0  0  0  0  0  0  0  0  0
   14.3910   -1.3414    0.0000 C   0  0  0  0  0  0  0  0  0  0  0  0
   12.5385   -2.8579    0.0000 C   0  0  0  0  0  0  0  0  0  0  0  0
   11.5600   -2.6517    0.0000 C   0  0  0  0  0  0  0  0  0  0  0  0
   13.6901    1.6644    0.0000 C   0  0  0  0  0  0  0  0  0  0  0  0
   14.6901    1.6644    0.0000 C   0  0  0  0  0  0  0  0  0  0  0  0
    5.2087    2.6907    0.0000 H   0  0  0  0  0  0  0  0  0  0  0  0
    4.8101    3.3810    0.0000 H   0  0  0  0  0  0  0  0  0  0  0  0
    3.3335    0.8234    0.0000 H   0  0  0  0  0  0  0  0  0  0  0  0
    4.1306    0.8234    0.0000 H   0  0  0  0  0  0  0  0  0  0  0  0
    4.1306    3.7733    0.0000 H   0  0  0  0  0  0  0  0  0  0  0  0
    3.3335    3.7733    0.0000 H   0  0  0  0  0  0  0  0  0  0  0  0
    2.2554    1.9060    0.0000 H   0  0  0  0  0  0  0  0  0  0  0  0
    2.6540    1.2158    0.0000 H   0  0  0  0  0  0  0  0  0  0  0  0
    2.3100    3.8353    0.0000 H   0  0  0  0  0  0  0  0  0  0  0  0
    1.4631    3.6084    0.0000 H   0  0  0  0  0  0  0  0  0  0  0  0
    1.6900    2.7614    0.0000 H   0  0  0  0  0  0  0  0  0  0  0  0
    4.9272   -0.0116    0.0000 H   0  0  0  0  0  0  0  0  0  0  0  0
    6.3301    2.4184    0.0000 H   0  0  0  0  0  0  0  0  0  0  0  0
    6.3301   -0.8216    0.0000 H   0  0  0  0  0  0  0  0  0  0  0  0
    7.7331    1.6084    0.0000 H   0  0  0  0  0  0  0  0  0  0  0  0
   13.0824    0.1878    0.0000 H   0  0  0  0  0  0  0  0  0  0  0  0
   13.7727    0.5863    0.0000 H   0  0  0  0  0  0  0  0  0  0  0  0
    8.0622   -0.8216    0.0000 H   0  0  0  0  0  0  0  0  0  0  0  0
    9.7942    2.4184    0.0000 H   0  0  0  0  0  0  0  0  0  0  0  0
   10.6426   -1.5733    0.0000 H   0  0  0  0  0  0  0  0  0  0  0  0
   13.3719   -3.1705    0.0000 H   0  0  0  0  0  0  0  0  0  0  0  0
   13.8507   -3.9050    0.0000 H   0  0  0  0  0  0  0  0  0  0  0  0
   14.5853   -3.4262    0.0000 H   0  0  0  0  0  0  0  0  0  0  0  0
   14.9977   -1.4692    0.0000 H   0  0  0  0  0  0  0  0  0  0  0  0
   14.5189   -0.7347    0.0000 H   0  0  0  0  0  0  0  0  0  0  0  0
   13.7844   -1.2135    0.0000 H   0  0  0  0  0  0  0  0  0  0  0  0
   12.7311   -3.4473    0.0000 H   0  0  0  0  0  0  0  0  0  0  0  0
   11.1459   -3.1132    0.0000 H   0  0  0  0  0  0  0  0  0  0  0  0
   13.3801    2.2013    0.0000 H   0  0  0  0  0  0  0  0  0  0  0  0
   15.3559   -3.1154    0.0000 H   0  0  0  0  0  0  0  0  0  0  0  0
   15.0001    1.1274    0.0000 H   0  0  0  0  0  0  0  0  0  0  0  0
   15.0001    2.2013    0.0000 H   0  0  0  0  0  0  0  0  0  0  0  0
  1 24  1  0  0  0  0
  1 67  1  0  0  0  0
  2 26  2  0  0  0  0
  3 11  1  0  0  0  0
  3 12  1  0  0  0  0
  3 15  1  0  0  0  0
  4 13  1  0  0  0  0
  4 14  1  0  0  0  0
  4 16  1  0  0  0  0
  5  6  1  0  0  0  0
  5 19  1  0  0  0  0
  5 25  1  0  0  0  0
  6 26  1  0  0  0  0
  6 28  1  0  0  0  0
  7 20  1  0  0  0  0
  7 29  1  0  0  0  0
  7 55  1  0  0  0  0
  8 19  2  0  0  0  0
  8 29  1  0  0  0  0
  9 25  1  0  0  0  0
  9 27  2  0  0  0  0
 10 29  2  0  0  0  0
 10 30  1  0  0  0  0
 11 13  1  0  0  0  0
 11 38  1  0  0  0  0
 11 39  1  0  0  0  0
 12 14  1  0  0  0  0
 12 40  1  0  0  0  0
 12 41  1  0  0  0  0
 13 42  1  0  0  0  0
 13 43  1  0  0  0  0
 14 44  1  0  0  0  0
 14 45  1  0  0  0  0
 15 17  2  0  0  0  0
 15 18  1  0  0  0  0
 16 46  1  0  0  0  0
 16 47  1  0  0  0  0
 16 48  1  0  0  0  0
 17 21  1  0  0  0  0
 17 49  1  0  0  0  0
 18 22  2  0  0  0  0
 18 50  1  0  0  0  0
 19 23  1  0  0  0  0
 20 21  2  0  0  0  0
 20 22  1  0  0  0  0
 21 51  1  0  0  0  0
 22 52  1  0  0  0  0
 23 26  1  0  0  0  0
 23 30  2  0  0  0  0
 24 27  1  0  0  0  0
 24 32  1  0  0  0  0
 24 33  1  0  0  0  0
 25 31  2  0  0  0  0
 27 34  1  0  0  0  0
 28 36  1  0  0  0  0
 28 53  1  0  0  0  0
 28 54  1  0  0  0  0
 30 56  1  0  0  0  0
 31 35  1  0  0  0  0
 31 57  1  0  0  0  0
 32 58  1  0  0  0  0
 32 59  1  0  0  0  0
 32 60  1  0  0  0  0
 33 61  1  0  0  0  0
 33 62  1  0  0  0  0
 33 63  1  0  0  0  0
 34 35  2  0  0  0  0
 34 64  1  0  0  0  0
 35 65  1  0  0  0  0
 36 37  2  0  0  0  0
 36 66  1  0  0  0  0
 37 68  1  0  0  0  0
 37 69  1  0  0  0  0
M  END
> <PUBCHEM_COMPOUND_CID>
24856436

> <PUBCHEM_COMPOUND_CANONICALIZED>
1

> <PUBCHEM_CACTVS_COMPLEXITY>
795

> <PUBCHEM_CACTVS_HBOND_ACCEPTOR>
9

> <PUBCHEM_CACTVS_HBOND_DONOR>
2

> <PUBCHEM_CACTVS_ROTATABLE_BOND>
7

> <PUBCHEM_CACTVS_SUBSKEYS>
AAADcfB78AAAAAAAAAAAAAAAAAAAAWAAAAA8WLEAAAAAAFgB8AAAHgAYCAAADEzBngQ/8JfIEgCoAzd3dASChCk1AqAf2CE4bNiKburA2dGUdIhs1gPY2OeQwEAMAACAAAAAAAAAAQAAAAAAAAAAAAAAAA==

> <PUBCHEM_IUPAC_OPENEYE_NAME>
2-allyl-1-[6-(1-hydroxy-1-methyl-ethyl)-2-pyridyl]-6-[4-(4-methylpiperazin-1-yl)anilino]pyrazolo[3,4-d]pyrimidin-3-one

> <PUBCHEM_IUPAC_CAS_NAME>
1-[6-(2-hydroxypropan-2-yl)-2-pyridinyl]-6-[4-(4-methyl-1-piperazinyl)anilino]-2-prop-2-enyl-3-pyrazolo[3,4-d]pyrimidinone

> <PUBCHEM_IUPAC_NAME_MARKUP>
1-[6-(2-hydroxypropan-2-yl)pyridin-2-yl]-6-[4-(4-methylpiperazin-1-yl)anilino]-2-prop-2-enylpyrazolo[3,4-d]pyrimidin-3-one

> <PUBCHEM_IUPAC_NAME>
1-[6-(2-hydroxypropan-2-yl)pyridin-2-yl]-6-[4-(4-methylpiperazin-1-yl)anilino]-2-prop-2-enylpyrazolo[3,4-d]pyrimidin-3-one

> <PUBCHEM_IUPAC_SYSTEMATIC_NAME>
6-[[4-(4-methylpiperazin-1-yl)phenyl]amino]-1-[6-(2-oxidanylpropan-2-yl)pyridin-2-yl]-2-prop-2-enyl-pyrazolo[3,4-d]pyrimidin-3-one

> <PUBCHEM_IUPAC_TRADITIONAL_NAME>
2-allyl-1-[6-(1-hydroxy-1-methyl-ethyl)-2-pyridyl]-6-[4-(4-methylpiperazino)anilino]pyrazolo[3,4-d]pyrimidin-3-one

> <PUBCHEM_IUPAC_INCHI>
InChI=1S/C27H32N8O2/c1-5-13-34-25(36)21-18-28-26(29-19-9-11-20(12-10-19)33-16-14-32(4)15-17-33)31-24(21)35(34)23-8-6-7-22(30-23)27(2,3)37/h5-12,18,37H,1,13-17H2,2-4H3,(H,28,29,31)

> <PUBCHEM_IUPAC_INCHIKEY>
BKWJAKQVGHWELA-UHFFFAOYSA-N

> <PUBCHEM_XLOGP3_AA>
3.1

> <PUBCHEM_EXACT_MASS>
500.26482229

> <PUBCHEM_MOLECULAR_FORMULA>
C27H32N8O2

> <PUBCHEM_MOLECULAR_WEIGHT>
500.6

> <PUBCHEM_OPENEYE_CAN_SMILES>
CC(C)(C1=NC(=CC=C1)N2C3=NC(=NC=C3C(=O)N2CC=C)NC4=CC=C(C=C4)N5CCN(CC5)C)O

> <PUBCHEM_OPENEYE_ISO_SMILES>
CC(C)(C1=NC(=CC=C1)N2C3=NC(=NC=C3C(=O)N2CC=C)NC4=CC=C(C=C4)N5CCN(CC5)C)O

> <PUBCHEM_CACTVS_TPSA>
101

> <PUBCHEM_MONOISOTOPIC_WEIGHT>
500.26482229

> <PUBCHEM_TOTAL_CHARGE>
0

> <PUBCHEM_HEAVY_ATOM_COUNT>
37

> <PUBCHEM_ATOM_DEF_STEREO_COUNT>
0

> <PUBCHEM_ATOM_UDEF_STEREO_COUNT>
0

> <PUBCHEM_BOND_DEF_STEREO_COUNT>
0

> <PUBCHEM_BOND_UDEF_STEREO_COUNT>
0

> <PUBCHEM_ISOTOPIC_ATOM_COUNT>
0

> <PUBCHEM_COMPONENT_COUNT>
1

> <PUBCHEM_CACTVS_TAUTO_COUNT>
-1

> <PUBCHEM_COORDINATE_TYPE>
1
5
255

> <PUBCHEM_BONDANNOTATIONS>
10  29  8
10  30  8
15  17  8
15  18  8
17  21  8
18  22  8
19  23  8
20  21  8
20  22  8
23  26  8
23  30  8
25  31  8
27  34  8
31  35  8
34  35  8
5  19  8
5  6  8
6  26  8
8  19  8
8  29  8
9  25  8
9  27  8

$$$$
2051
  -OEChem-11282412102D

 36 38  0     0  0  0  0  0  0999 V2000
    8.0437   -3.5272    0.0000 Cl  0  0  0  0  0  0  0  0  0  0  0  0
    2.8660    0.5272    0.0000 O   0  0  0  0  0  0  0  0  0  0  0  0
    2.8660    2.5272    0.0000 O   0  0  0  0  0  0  0  0  0  0  0  0
    6.3465   -0.5074    0.0000 N   0  0  0  0  0  0  0  0  0  0  0  0
    6.3580    2.5619    0.0000 N   0  0  0  0  0  0  0  0  0  0  0  0
    7.2641    1.0064    0.0000 N   0  0  0  0  0  0  0  0  0  0  0  0
    5.4641    1.0272    0.0000 C   0  0  0  0  0  0  0  0  0  0  0  0
    5.4641    2.0272    0.0000 C   0  0  0  0  0  0  0  0  0  0  0  0
    6.3580    0.4926    0.0000 C   0  0  0  0  0  0  0  0  0  0  0  0
    4.5981    0.5272    0.0000 C   0  0  0  0  0  0  0  0  0  0  0  0
    3.7320    1.0272    0.0000 C   0  0  0  0  0  0  0  0  0  0  0  0
    4.5981    2.5272    0.0000 C   0  0  0  0  0  0  0  0  0  0  0  0
    3.7320    2.0272    0.0000 C   0  0  0  0  0  0  0  0  0  0  0  0
    7.2067   -1.0174    0.0000 C   0  0  0  0  0  0  0  0  0  0  0  0
    7.2641    2.0480    0.0000 C   0  0  0  0  0  0  0  0  0  0  0  0
    7.1951   -2.0173    0.0000 C   0  0  0  0  0  0  0  0  0  0  0  0
    8.0784   -0.5274    0.0000 C   0  0  0  0  0  0  0  0  0  0  0  0
    8.0553   -2.5273    0.0000 C   0  0  0  0  0  0  0  0  0  0  0  0
    8.9386   -1.0374    0.0000 C   0  0  0  0  0  0  0  0  0  0  0  0
    8.9270   -2.0373    0.0000 C   0  0  0  0  0  0  0  0  0  0  0  0
    2.0000    1.0272    0.0000 C   0  0  0  0  0  0  0  0  0  0  0  0
    2.8660    3.5272    0.0000 C   0  0  0  0  0  0  0  0  0  0  0  0
    4.5981   -0.0928    0.0000 H   0  0  0  0  0  0  0  0  0  0  0  0
    4.5981    3.1472    0.0000 H   0  0  0  0  0  0  0  0  0  0  0  0
    5.8060   -0.8112    0.0000 H   0  0  0  0  0  0  0  0  0  0  0  0
    7.7998    2.3601    0.0000 H   0  0  0  0  0  0  0  0  0  0  0  0
    6.6546   -2.3211    0.0000 H   0  0  0  0  0  0  0  0  0  0  0  0
    8.0856    0.0925    0.0000 H   0  0  0  0  0  0  0  0  0  0  0  0
    9.4791   -0.7336    0.0000 H   0  0  0  0  0  0  0  0  0  0  0  0
    9.4604   -2.3535    0.0000 H   0  0  0  0  0  0  0  0  0  0  0  0
    2.3100    1.5642    0.0000 H   0  0  0  0  0  0  0  0  0  0  0  0
    1.4631    1.3372    0.0000 H   0  0  0  0  0  0  0  0  0  0  0  0
    1.6900    0.4903    0.0000 H   0  0  0  0  0  0  0  0  0  0  0  0
    3.4860    3.5272    0.0000 H   0  0  0  0  0  0  0  0  0  0  0  0
    2.8660    4.1472    0.0000 H   0  0  0  0  0  0  0  0  0  0  0  0
    2.2460    3.5272    0.0000 H   0  0  0  0  0  0  0  0  0  0  0  0
  1 18  1  0  0  0  0
  2 11  1  0  0  0  0
  2 21  1  0  0  0  0
  3 13  1  0  0  0  0
  3 22  1  0  0  0  0
  4  9  1  0  0  0  0
  4 14  1  0  0  0  0
  4 25  1  0  0  0  0
  5  8  1  0  0  0  0
  5 15  2  0  0  0  0
  6  9  2  0  0  0  0
  6 15  1  0  0  0  0
  7  8  1  0  0  0  0
  7  9  1  0  0  0  0
  7 10  2  0  0  0  0
  8 12  2  0  0  0  0
 10 11  1  0  0  0  0
 10 23  1  0  0  0  0
 11 13  2  0  0  0  0
 12 13  1  0  0  0  0
 12 24  1  0  0  0  0
 14 16  2  0  0  0  0
 14 17  1  0  0  0  0
 15 26  1  0  0  0  0
 16 18  1  0  0  0  0
 16 27  1  0  0  0  0
 17 19  2  0  0  0  0
 17 28  1  0  0  0  0
 18 20  2  0  0  0  0
 19 20  1  0  0  0  0
 19 29  1  0  0  0  0
 20 30  1  0  0  0  0
 21 31  1  0  0  0  0
 21 32  1  0  0  0  0
 21 33  1  0  0  0  0
 22 34  1  0  0  0  0
 22 35  1  0  0  0  0
 22 36  1  0  0  0  0
M  END
> <PUBCHEM_COMPOUND_CID>
2051

> <PUBCHEM_COMPOUND_CANONICALIZED>
1

> <PUBCHEM_CACTVS_COMPLEXITY>
360

> <PUBCHEM_CACTVS_HBOND_ACCEPTOR>
5

> <PUBCHEM_CACTVS_HBOND_DONOR>
1

> <PUBCHEM_CACTVS_ROTATABLE_BOND>
4

> <PUBCHEM_CACTVS_SUBSKEYS>
AAADccB7MAAEAAAAAAAAAAAAAAAAAAAAAAA8YIAAAAAAAACx9AAAHgIQAAAADA6BniY39vbIFACgAyZjZACCiCkxJ6AJ2CA+7piNLuLF+9uENCpu0BvK6Cew0BMOIEABAgICQABAgAIEBASAAAAAAAAAAA==

> <PUBCHEM_IUPAC_OPENEYE_NAME>
N-(3-chlorophenyl)-6,7-dimethoxy-quinazolin-4-amine

> <PUBCHEM_IUPAC_CAS_NAME>
N-(3-chlorophenyl)-6,7-dimethoxy-4-quinazolinamine

> <PUBCHEM_IUPAC_NAME_MARKUP>
<I>N</I>-(3-chlorophenyl)-6,7-dimethoxyquinazolin-4-amine

> <PUBCHEM_IUPAC_NAME>
N-(3-chlorophenyl)-6,7-dimethoxyquinazolin-4-amine

> <PUBCHEM_IUPAC_SYSTEMATIC_NAME>
N-(3-chlorophenyl)-6,7-dimethoxy-quinazolin-4-amine

> <PUBCHEM_IUPAC_TRADITIONAL_NAME>
(3-chlorophenyl)-(6,7-dimethoxyquinazolin-4-yl)amine

> <PUBCHEM_IUPAC_INCHI>
InChI=1S/C16H14ClN3O2/c1-21-14-7-12-13(8-15(14)22-2)18-9-19-16(12)20-11-5-3-4-10(17)6-11/h3-9H,1-2H3,(H,18,19,20)

> <PUBCHEM_IUPAC_INCHIKEY>
GFNNBHLJANVSQV-UHFFFAOYSA-N

> <PUBCHEM_XLOGP3_AA>
4

> <PUBCHEM_EXACT_MASS>
315.0774544

> <PUBCHEM_MOLECULAR_FORMULA>
C16H14ClN3O2

> <PUBCHEM_MOLECULAR_WEIGHT>
315.75

> <PUBCHEM_OPENEYE_CAN_SMILES>
COC1=C(C=C2C(=C1)C(=NC=N2)NC3=CC(=CC=C3)Cl)OC

> <PUBCHEM_OPENEYE_ISO_SMILES>
COC1=C(C=C2C(=C1)C(=NC=N2)NC3=CC(=CC=C3)Cl)OC

> <PUBCHEM_CACTVS_TPSA>
56.3

> <PUBCHEM_MONOISOTOPIC_WEIGHT>
315.0774544

> <PUBCHEM_TOTAL_CHARGE>
0

> <PUBCHEM_HEAVY_ATOM_COUNT>
22

> <PUBCHEM_ATOM_DEF_STEREO_COUNT>
0

> <PUBCHEM_ATOM_UDEF_STEREO_COUNT>
0

> <PUBCHEM_BOND_DEF_STEREO_COUNT>
0

> <PUBCHEM_BOND_UDEF_STEREO_COUNT>
0

> <PUBCHEM_ISOTOPIC_ATOM_COUNT>
0

> <PUBCHEM_COMPONENT_COUNT>
1

> <PUBCHEM_CACTVS_TAUTO_COUNT>
-1

> <PUBCHEM_COORDINATE_TYPE>
1
5
255

> <PUBCHEM_BONDANNOTATIONS>
10  11  8
11  13  8
12  13  8
14  16  8
14  17  8
16  18  8
17  19  8
18  20  8
19  20  8
5  15  8
5  8  8
6  15  8
6  9  8
7  10  8
7  8  8
7  9  8
8  12  8

$$$$
5328768
  -OEChem-11282412102D

 23 23  0     0  0  0  0  0  0999 V2000
    2.5369   -2.1550    0.0000 O   0  0  0  0  0  0  0  0  0  0  0  0
    4.2690   -3.1550    0.0000 O   0  0  0  0  0  0  0  0  0  0  0  0
    4.2690    2.8450    0.0000 O   0  0  0  0  0  0  0  0  0  0  0  0
    6.0010    2.8450    0.0000 N   0  0  0  0  0  0  0  0  0  0  0  0
    6.8671    0.3450    0.0000 N   0  0  0  0  0  0  0  0  0  0  0  0
    4.2690   -0.1550    0.0000 C   0  0  0  0  0  0  0  0  0  0  0  0
    3.4030   -0.6550    0.0000 C   0  0  0  0  0  0  0  0  0  0  0  0
    5.1350   -0.6550    0.0000 C   0  0  0  0  0  0  0  0  0  0  0  0
    3.4030   -1.6550    0.0000 C   0  0  0  0  0  0  0  0  0  0  0  0
    4.2690   -2.1550    0.0000 C   0  0  0  0  0  0  0  0  0  0  0  0
    5.1350   -1.6550    0.0000 C   0  0  0  0  0  0  0  0  0  0  0  0
    4.2690    0.8450    0.0000 C   0  0  0  0  0  0  0  0  0  0  0  0
    5.1350    1.3450    0.0000 C   0  0  0  0  0  0  0  0  0  0  0  0
    5.1350    2.3450    0.0000 C   0  0  0  0  0  0  0  0  0  0  0  0
    6.0010    0.8450    0.0000 C   0  0  0  0  0  0  0  0  0  0  0  0
    2.8660   -0.3450    0.0000 H   0  0  0  0  0  0  0  0  0  0  0  0
    5.6720   -0.3450    0.0000 H   0  0  0  0  0  0  0  0  0  0  0  0
    5.6720   -1.9650    0.0000 H   0  0  0  0  0  0  0  0  0  0  0  0
    3.7320    1.1550    0.0000 H   0  0  0  0  0  0  0  0  0  0  0  0
    2.0000   -1.8450    0.0000 H   0  0  0  0  0  0  0  0  0  0  0  0
    4.8059   -3.4650    0.0000 H   0  0  0  0  0  0  0  0  0  0  0  0
    6.0010    3.4650    0.0000 H   0  0  0  0  0  0  0  0  0  0  0  0
    6.5380    2.5350    0.0000 H   0  0  0  0  0  0  0  0  0  0  0  0
  1  9  1  0  0  0  0
  1 20  1  0  0  0  0
  2 10  1  0  0  0  0
  2 21  1  0  0  0  0
  3 14  2  0  0  0  0
  4 14  1  0  0  0  0
  4 22  1  0  0  0  0
  4 23  1  0  0  0  0
  5 15  3  0  0  0  0
  6  7  2  0  0  0  0
  6  8  1  0  0  0  0
  6 12  1  0  0  0  0
  7  9  1  0  0  0  0
  7 16  1  0  0  0  0
  8 11  2  0  0  0  0
  8 17  1  0  0  0  0
  9 10  2  0  0  0  0
 10 11  1  0  0  0  0
 11 18  1  0  0  0  0
 12 13  2  0  0  0  0
 12 19  1  0  0  0  0
 13 14  1  0  0  0  0
 13 15  1  0  0  0  0
M  END
> <PUBCHEM_COMPOUND_CID>
5328768

> <PUBCHEM_COMPOUND_CANONICALIZED>
1

> <PUBCHEM_CACTVS_COMPLEXITY>
329

> <PUBCHEM_CACTVS_HBOND_ACCEPTOR>
4

> <PUBCHEM_CACTVS_HBOND_DONOR>
3

> <PUBCHEM_CACTVS_ROTATABLE_BOND>
2

> <PUBCHEM_CACTVS_SUBSKEYS>
AAADccBzMAAAAAAAAAAAAAAAAAAAAAAAAAAwAAAAAAAAAAABAAAAHgAQCAAADASBmAAwBoBAAgCYBiFSEACiAAAgIAAIiAEGiMgJpiKCERKAcAEkwBEJmYeAwBAOIAABAAAAQABAAAIAAACAAAAAAAAAAA==

> <PUBCHEM_IUPAC_OPENEYE_NAME>
(E)-2-cyano-3-(3,4-dihydroxyphenyl)prop-2-enamide

> <PUBCHEM_IUPAC_CAS_NAME>
(E)-2-cyano-3-(3,4-dihydroxyphenyl)-2-propenamide

> <PUBCHEM_IUPAC_NAME_MARKUP>
(<I>E</I>)-2-cyano-3-(3,4-dihydroxyphenyl)prop-2-enamide

> <PUBCHEM_IUPAC_NAME>
(E)-2-cyano-3-(3,4-dihydroxyphenyl)prop-2-enamide

> <PUBCHEM_IUPAC_SYSTEMATIC_NAME>
(E)-3-[3,4-bis(oxidanyl)phenyl]-2-cyano-prop-2-enamide

> <PUBCHEM_IUPAC_TRADITIONAL_NAME>
(E)-2-cyano-3-(3,4-dihydroxyphenyl)acrylamide

> <PUBCHEM_IUPAC_INCHI>
InChI=1S/C10H8N2O3/c11-5-7(10(12)15)3-6-1-2-8(13)9(14)4-6/h1-4,13-14H,(H2,12,15)/b7-3+

> <PUBCHEM_IUPAC_INCHIKEY>
USOXQZNJFMKTKJ-XVNBXDOJSA-N

> <PUBCHEM_XLOGP3_AA>
0.4

> <PUBCHEM_EXACT_MASS>
204.05349212

> <PUBCHEM_MOLECULAR_FORMULA>
C10H8N2O3

> <PUBCHEM_MOLECULAR_WEIGHT>
204.18

> <PUBCHEM_OPENEYE_CAN_SMILES>
C1=CC(=C(C=C1C=C(C#N)C(=O)N)O)O

> <PUBCHEM_OPENEYE_ISO_SMILES>
C1=CC(=C(C=C1/C=C(\C#N)/C(=O)N)O)O

> <PUBCHEM_CACTVS_TPSA>
107

> <PUBCHEM_MONOISOTOPIC_WEIGHT>
204.05349212

> <PUBCHEM_TOTAL_CHARGE>
0

> <PUBCHEM_HEAVY_ATOM_COUNT>
15

> <PUBCHEM_ATOM_DEF_STEREO_COUNT>
0

> <PUBCHEM_ATOM_UDEF_STEREO_COUNT>
0

> <PUBCHEM_BOND_DEF_STEREO_COUNT>
1

> <PUBCHEM_BOND_UDEF_STEREO_COUNT>
0

> <PUBCHEM_ISOTOPIC_ATOM_COUNT>
0

> <PUBCHEM_COMPONENT_COUNT>
1

> <PUBCHEM_CACTVS_TAUTO_COUNT>
-1

> <PUBCHEM_COORDINATE_TYPE>
1
5
255

> <PUBCHEM_BONDANNOTATIONS>
10  11  8
6  7  8
6  8  8
7  9  8
8  11  8
9  10  8

$$$$
10297043
  -OEChem-11282412102D

 65 69  0     1  0  0  0  0  0999 V2000
   10.6279   -1.8840    0.0000 N   0  0  0  0  0  0  0  0  0  0  0  0
   11.6279   -3.6160    0.0000 N   0  0  0  0  0  0  0  0  0  0  0  0
    5.5443   -1.8227    0.0000 N   0  0  0  0  0  0  0  0  0  0  0  0
    3.7320    0.9821    0.0000 N   0  0  0  0  0  0  0  0  0  0  0  0
    3.7320   -2.0180    0.0000 N   0  0  0  0  0  0  0  0  0  0  0  0
    2.8660   -0.5179    0.0000 N   0  0  0  0  0  0  0  0  0  0  0  0
   11.6279   -1.8840    0.0000 C   0  0  0  0  0  0  0  0  0  0  0  0
   10.1279   -2.7500    0.0000 C   0  0  0  0  0  0  0  0  0  0  0  0
   12.1279   -2.7500    0.0000 C   0  0  0  0  0  0  0  0  0  0  0  0
   10.6279   -3.6160    0.0000 C   0  0  0  0  0  0  0  0  0  0  0  0
   10.1279   -1.0180    0.0000 C   0  0  0  0  0  0  0  0  0  0  0  0
   12.1279   -4.4820    0.0000 C   0  0  0  0  0  0  0  0  0  0  0  0
    9.1279   -1.0180    0.0000 C   0  0  0  0  0  0  0  0  0  0  0  0
   13.1279   -4.4820    0.0000 C   0  0  0  0  0  0  0  0  0  0  0  0
    8.6279   -0.1519    0.0000 C   0  0  0  0  0  0  0  0  0  0  0  0
    8.6279   -1.8840    0.0000 C   0  0  0  0  0  0  0  0  0  0  0  0
    7.1279   -1.0180    0.0000 C   0  0  0  0  0  0  0  0  0  0  0  0
    7.6279   -0.1519    0.0000 C   0  0  0  0  0  0  0  0  0  0  0  0
    7.6279   -1.8840    0.0000 C   0  0  0  0  0  0  0  0  0  0  0  0
    6.1279   -1.0180    0.0000 C   0  0  0  0  0  0  0  0  0  0  0  0
    4.5981   -0.5179    0.0000 C   0  0  0  0  0  0  0  0  0  0  0  0
    5.5443   -0.2132    0.0000 C   0  0  0  0  0  0  0  0  0  0  0  0
    4.5981   -1.5180    0.0000 C   0  0  0  0  0  0  0  0  0  0  0  0
    2.8660    1.4820    0.0000 C   0  0  1  0  0  0  0  0  0  0  0  0
    3.7320   -0.0179    0.0000 C   0  0  0  0  0  0  0  0  0  0  0  0
    2.8660    2.4820    0.0000 C   0  0  0  0  0  0  0  0  0  0  0  0
    2.0000    0.9821    0.0000 C   0  0  0  0  0  0  0  0  0  0  0  0
    2.8660   -1.5180    0.0000 C   0  0  0  0  0  0  0  0  0  0  0  0
    2.0000    2.9820    0.0000 C   0  0  0  0  0  0  0  0  0  0  0  0
    3.7320    2.9820    0.0000 C   0  0  0  0  0  0  0  0  0  0  0  0
    2.0000    3.9820    0.0000 C   0  0  0  0  0  0  0  0  0  0  0  0
    3.7320    3.9820    0.0000 C   0  0  0  0  0  0  0  0  0  0  0  0
    2.8660    4.4820    0.0000 C   0  0  0  0  0  0  0  0  0  0  0  0
   12.2105   -1.6719    0.0000 H   0  0  0  0  0  0  0  0  0  0  0  0
   11.5202   -1.2734    0.0000 H   0  0  0  0  0  0  0  0  0  0  0  0
    9.6530   -2.3515    0.0000 H   0  0  0  0  0  0  0  0  0  0  0  0
    9.6530   -3.1485    0.0000 H   0  0  0  0  0  0  0  0  0  0  0  0
   12.6029   -3.1485    0.0000 H   0  0  0  0  0  0  0  0  0  0  0  0
   12.6029   -2.3515    0.0000 H   0  0  0  0  0  0  0  0  0  0  0  0
   10.0453   -3.8281    0.0000 H   0  0  0  0  0  0  0  0  0  0  0  0
   10.7356   -4.2266    0.0000 H   0  0  0  0  0  0  0  0  0  0  0  0
   10.7105   -0.8059    0.0000 H   0  0  0  0  0  0  0  0  0  0  0  0
   10.0202   -0.4074    0.0000 H   0  0  0  0  0  0  0  0  0  0  0  0
   11.5453   -4.6941    0.0000 H   0  0  0  0  0  0  0  0  0  0  0  0
   12.2356   -5.0926    0.0000 H   0  0  0  0  0  0  0  0  0  0  0  0
   13.1279   -5.1020    0.0000 H   0  0  0  0  0  0  0  0  0  0  0  0
   13.7479   -4.4820    0.0000 H   0  0  0  0  0  0  0  0  0  0  0  0
   13.1279   -3.8620    0.0000 H   0  0  0  0  0  0  0  0  0  0  0  0
    8.9379    0.3850    0.0000 H   0  0  0  0  0  0  0  0  0  0  0  0
    8.9379   -2.4209    0.0000 H   0  0  0  0  0  0  0  0  0  0  0  0
    7.3179    0.3850    0.0000 H   0  0  0  0  0  0  0  0  0  0  0  0
    7.3179   -2.4209    0.0000 H   0  0  0  0  0  0  0  0  0  0  0  0
    5.7369    0.3761    0.0000 H   0  0  0  0  0  0  0  0  0  0  0  0
    5.7369   -2.4120    0.0000 H   0  0  0  0  0  0  0  0  0  0  0  0
    2.8660    0.8621    0.0000 H   0  0  0  0  0  0  0  0  0  0  0  0
    4.2690    1.2920    0.0000 H   0  0  0  0  0  0  0  0  0  0  0  0
    1.6900    1.5190    0.0000 H   0  0  0  0  0  0  0  0  0  0  0  0
    1.4631    0.6721    0.0000 H   0  0  0  0  0  0  0  0  0  0  0  0
    2.3100    0.4451    0.0000 H   0  0  0  0  0  0  0  0  0  0  0  0
    2.3291   -1.8280    0.0000 H   0  0  0  0  0  0  0  0  0  0  0  0
    1.4631    2.6720    0.0000 H   0  0  0  0  0  0  0  0  0  0  0  0
    4.2690    2.6720    0.0000 H   0  0  0  0  0  0  0  0  0  0  0  0
    1.4631    4.2920    0.0000 H   0  0  0  0  0  0  0  0  0  0  0  0
    4.2690    4.2920    0.0000 H   0  0  0  0  0  0  0  0  0  0  0  0
    2.8660    5.1020    0.0000 H   0  0  0  0  0  0  0  0  0  0  0  0
  1  7  1  0  0  0  0
  1  8  1  0  0  0  0
  1 11  1  0  0  0  0
  2  9  1  0  0  0  0
  2 10  1  0  0  0  0
  2 12  1  0  0  0  0
  3 20  1  0  0  0  0
  3 23  1  0  0  0  0
  3 54  1  0  0  0  0
 24  4  1  6  0  0  0
  4 25  1  0  0  0  0
  4 56  1  0  0  0  0
  5 23  1  0  0  0  0
  5 28  2  0  0  0  0
  6 25  2  0  0  0  0
  6 28  1  0  0  0  0
  7  9  1  0  0  0  0
  7 34  1  0  0  0  0
  7 35  1  0  0  0  0
  8 10  1  0  0  0  0
  8 36  1  0  0  0  0
  8 37  1  0  0  0  0
  9 38  1  0  0  0  0
  9 39  1  0  0  0  0
 10 40  1  0  0  0  0
 10 41  1  0  0  0  0
 11 13  1  0  0  0  0
 11 42  1  0  0  0  0
 11 43  1  0  0  0  0
 12 14  1  0  0  0  0
 12 44  1  0  0  0  0
 12 45  1  0  0  0  0
 13 15  2  0  0  0  0
 13 16  1  0  0  0  0
 14 46  1  0  0  0  0
 14 47  1  0  0  0  0
 14 48  1  0  0  0  0
 15 18  1  0  0  0  0
 15 49  1  0  0  0  0
 16 19  2  0  0  0  0
 16 50  1  0  0  0  0
 17 18  2  0  0  0  0
 17 19  1  0  0  0  0
 17 20  1  0  0  0  0
 18 51  1  0  0  0  0
 19 52  1  0  0  0  0
 20 22  2  0  0  0  0
 21 22  1  0  0  0  0
 21 23  2  0  0  0  0
 21 25  1  0  0  0  0
 22 53  1  0  0  0  0
 24 26  1  0  0  0  0
 24 27  1  0  0  0  0
 24 55  1  0  0  0  0
 26 29  2  0  0  0  0
 26 30  1  0  0  0  0
 27 57  1  0  0  0  0
 27 58  1  0  0  0  0
 27 59  1  0  0  0  0
 28 60  1  0  0  0  0
 29 31  1  0  0  0  0
 29 61  1  0  0  0  0
 30 32  2  0  0  0  0
 30 62  1  0  0  0  0
 31 33  2  0  0  0  0
 31 63  1  0  0  0  0
 32 33  1  0  0  0  0
 32 64  1  0  0  0  0
 33 65  1  0  0  0  0
M  END
> <PUBCHEM_COMPOUND_CID>
10297043

> <PUBCHEM_COMPOUND_CANONICALIZED>
1

> <PUBCHEM_CACTVS_COMPLEXITY>
579

> <PUBCHEM_CACTVS_HBOND_ACCEPTOR>
5

> <PUBCHEM_CACTVS_HBOND_DONOR>
2

> <PUBCHEM_CACTVS_ROTATABLE_BOND>
7

> <PUBCHEM_CACTVS_SUBSKEYS>
AAADcfB7gAAAAAAAAAAAAAAAAAAAAWAAAAA8eIEAAAAAAFgB/AAAHAAQAAAADCjBHwQ3sN/JkACgAyZjZACCgCmxAqAJ2aA4ZJiIaOLA2dGUJAhokALIyCcQgMAOQAAAAAAAAACAAAAAAAAAAAAAAAAAAA==

> <PUBCHEM_IUPAC_OPENEYE_NAME>
6-[4-[(4-ethylpiperazin-1-yl)methyl]phenyl]-N-[(1R)-1-phenylethyl]-7H-pyrrolo[2,3-d]pyrimidin-4-amine

> <PUBCHEM_IUPAC_CAS_NAME>
6-[4-[(4-ethyl-1-piperazinyl)methyl]phenyl]-N-[(1R)-1-phenylethyl]-7H-pyrrolo[2,3-d]pyrimidin-4-amine

> <PUBCHEM_IUPAC_NAME_MARKUP>
6-[4-[(4-ethylpiperazin-1-yl)methyl]phenyl]-<I>N</I>-[(1<I>R</I>)-1-phenylethyl]-7<I>H</I>-pyrrolo[2,3-d]pyrimidin-4-amine

> <PUBCHEM_IUPAC_NAME>
6-[4-[(4-ethylpiperazin-1-yl)methyl]phenyl]-N-[(1R)-1-phenylethyl]-7H-pyrrolo[2,3-d]pyrimidin-4-amine

> <PUBCHEM_IUPAC_SYSTEMATIC_NAME>
6-[4-[(4-ethylpiperazin-1-yl)methyl]phenyl]-N-[(1R)-1-phenylethyl]-7H-pyrrolo[2,3-d]pyrimidin-4-amine

> <PUBCHEM_IUPAC_TRADITIONAL_NAME>
[6-[4-[(4-ethylpiperazino)methyl]phenyl]-7H-pyrrolo[2,3-d]pyrimidin-4-yl]-[(1R)-1-phenylethyl]amine

> <PUBCHEM_IUPAC_INCHI>
InChI=1S/C27H32N6/c1-3-32-13-15-33(16-14-32)18-21-9-11-23(12-10-21)25-17-24-26(28-19-29-27(24)31-25)30-20(2)22-7-5-4-6-8-22/h4-12,17,19-20H,3,13-16,18H2,1-2H3,(H2,28,29,30,31)/t20-/m1/s1

> <PUBCHEM_IUPAC_INCHIKEY>
OONFNUWBHFSNBT-HXUWFJFHSA-N

> <PUBCHEM_XLOGP3_AA>
4.6

> <PUBCHEM_EXACT_MASS>
440.26884505

> <PUBCHEM_MOLECULAR_FORMULA>
C27H32N6

> <PUBCHEM_MOLECULAR_WEIGHT>
440.6

> <PUBCHEM_OPENEYE_CAN_SMILES>
CCN1CCN(CC1)CC2=CC=C(C=C2)C3=CC4=C(N3)N=CN=C4NC(C)C5=CC=CC=C5

> <PUBCHEM_OPENEYE_ISO_SMILES>
CCN1CCN(CC1)CC2=CC=C(C=C2)C3=CC4=C(N3)N=CN=C4N[C@H](C)C5=CC=CC=C5

> <PUBCHEM_CACTVS_TPSA>
60.1

> <PUBCHEM_MONOISOTOPIC_WEIGHT>
440.26884505

> <PUBCHEM_TOTAL_CHARGE>
0

> <PUBCHEM_HEAVY_ATOM_COUNT>
33

> <PUBCHEM_ATOM_DEF_STEREO_COUNT>
1

> <PUBCHEM_ATOM_UDEF_STEREO_COUNT>
0

> <PUBCHEM_BOND_DEF_STEREO_COUNT>
0

> <PUBCHEM_BOND_UDEF_STEREO_COUNT>
0

> <PUBCHEM_ISOTOPIC_ATOM_COUNT>
0

> <PUBCHEM_COMPONENT_COUNT>
1

> <PUBCHEM_CACTVS_TAUTO_COUNT>
-1

> <PUBCHEM_COORDINATE_TYPE>
1
5
255

> <PUBCHEM_BONDANNOTATIONS>
13  15  8
13  16  8
15  18  8
16  19  8
17  18  8
17  19  8
20  22  8
21  22  8
21  23  8
21  25  8
26  29  8
26  30  8
29  31  8
3  20  8
3  23  8
30  32  8
31  33  8
32  33  8
24  4  6
5  23  8
5  28  8
6  25  8
6  28  8

$$$$
11671467
  -OEChem-11282412102D

 66 69  0     0  0  0  0  0  0999 V2000
   14.1961   -2.3212    0.0000 P   0  0  0  0  0  0  0  0  0  0  0  0
    9.7922    2.1546    0.0000 F   0  0  0  0  0  0  0  0  0  0  0  0
   13.3301    2.1788    0.0000 O   0  0  0  0  0  0  0  0  0  0  0  0
   15.0621    0.1788    0.0000 O   0  0  0  0  0  0  0  0  0  0  0  0
   14.1961   -1.3212    0.0000 O   0  0  0  0  0  0  0  0  0  0  0  0
   14.1961   -3.3212    0.0000 O   0  0  0  0  0  0  0  0  0  0  0  0
   15.1961   -2.3212    0.0000 O   0  0  0  0  0  0  0  0  0  0  0  0
   13.1961   -2.3212    0.0000 O   0  0  0  0  0  0  0  0  0  0  0  0
    2.8718    0.1279    0.0000 O   0  0  0  0  0  0  0  0  0  0  0  0
    4.5923    3.1346    0.0000 O   0  0  0  0  0  0  0  0  0  0  0  0
    2.8641    2.1279    0.0000 O   0  0  0  0  0  0  0  0  0  0  0  0
   13.3301    0.1788    0.0000 N   0  0  0  0  0  0  0  0  0  0  0  0
   11.5701    0.1441    0.0000 N   0  0  0  0  0  0  0  0  0  0  0  0
    9.8000    0.1546    0.0000 N   0  0  0  0  0  0  0  0  0  0  0  0
    8.0679    0.1479    0.0000 N   0  0  0  0  0  0  0  0  0  0  0  0
    6.3359    0.1413    0.0000 N   0  0  0  0  0  0  0  0  0  0  0  0
    7.1961    1.6446    0.0000 N   0  0  0  0  0  0  0  0  0  0  0  0
   14.1961    1.6788    0.0000 C   0  0  0  0  0  0  0  0  0  0  0  0
   14.1961    0.6788    0.0000 C   0  0  0  0  0  0  0  0  0  0  0  0
   12.4641    0.6788    0.0000 C   0  0  0  0  0  0  0  0  0  0  0  0
   15.1961    1.6788    0.0000 C   0  0  0  0  0  0  0  0  0  0  0  0
   14.6961    2.5448    0.0000 C   0  0  0  0  0  0  0  0  0  0  0  0
   12.4641    1.6788    0.0000 C   0  0  0  0  0  0  0  0  0  0  0  0
   13.3301   -0.8212    0.0000 C   0  0  0  0  0  0  0  0  0  0  0  0
   11.5701    2.2134    0.0000 C   0  0  0  0  0  0  0  0  0  0  0  0
   10.6640    0.6580    0.0000 C   0  0  0  0  0  0  0  0  0  0  0  0
   10.6640    1.6996    0.0000 C   0  0  0  0  0  0  0  0  0  0  0  0
    8.9320    0.6513    0.0000 C   0  0  0  0  0  0  0  0  0  0  0  0
    8.9282    1.6513    0.0000 C   0  0  0  0  0  0  0  0  0  0  0  0
    7.2000    0.6446    0.0000 C   0  0  0  0  0  0  0  0  0  0  0  0
    5.4679    0.6379    0.0000 C   0  0  0  0  0  0  0  0  0  0  0  0
    5.4641    1.6379    0.0000 C   0  0  0  0  0  0  0  0  0  0  0  0
    4.6038    0.1346    0.0000 C   0  0  0  0  0  0  0  0  0  0  0  0
    3.7359    0.6313    0.0000 C   0  0  0  0  0  0  0  0  0  0  0  0
    4.5961    2.1346    0.0000 C   0  0  0  0  0  0  0  0  0  0  0  0
    3.7320    1.6312    0.0000 C   0  0  0  0  0  0  0  0  0  0  0  0
    8.0602    2.1479    0.0000 C   0  0  0  0  0  0  0  0  0  0  0  0
    2.8757   -0.8721    0.0000 C   0  0  0  0  0  0  0  0  0  0  0  0
    3.7243    3.6312    0.0000 C   0  0  0  0  0  0  0  0  0  0  0  0
    2.0000    1.6246    0.0000 C   0  0  0  0  0  0  0  0  0  0  0  0
   15.1961    1.0588    0.0000 H   0  0  0  0  0  0  0  0  0  0  0  0
   15.8161    1.6788    0.0000 H   0  0  0  0  0  0  0  0  0  0  0  0
   15.1961    2.2988    0.0000 H   0  0  0  0  0  0  0  0  0  0  0  0
   15.2330    2.2348    0.0000 H   0  0  0  0  0  0  0  0  0  0  0  0
   15.0061    3.0817    0.0000 H   0  0  0  0  0  0  0  0  0  0  0  0
   14.1592    2.8548    0.0000 H   0  0  0  0  0  0  0  0  0  0  0  0
   12.7195   -0.7136    0.0000 H   0  0  0  0  0  0  0  0  0  0  0  0
   13.1180   -1.4038    0.0000 H   0  0  0  0  0  0  0  0  0  0  0  0
   11.5773    2.8334    0.0000 H   0  0  0  0  0  0  0  0  0  0  0  0
   10.1283    2.0116    0.0000 H   0  0  0  0  0  0  0  0  0  0  0  0
    9.8023   -0.4654    0.0000 H   0  0  0  0  0  0  0  0  0  0  0  0
    6.3383   -0.4787    0.0000 H   0  0  0  0  0  0  0  0  0  0  0  0
    5.9998    1.9500    0.0000 H   0  0  0  0  0  0  0  0  0  0  0  0
    4.6062   -0.4854    0.0000 H   0  0  0  0  0  0  0  0  0  0  0  0
   14.7330   -3.6312    0.0000 H   0  0  0  0  0  0  0  0  0  0  0  0
   15.5061   -2.8582    0.0000 H   0  0  0  0  0  0  0  0  0  0  0  0
    8.0578    2.7679    0.0000 H   0  0  0  0  0  0  0  0  0  0  0  0
    2.2557   -0.8745    0.0000 H   0  0  0  0  0  0  0  0  0  0  0  0
    2.8780   -1.4921    0.0000 H   0  0  0  0  0  0  0  0  0  0  0  0
    3.4956   -0.8697    0.0000 H   0  0  0  0  0  0  0  0  0  0  0  0
    4.0323    4.1694    0.0000 H   0  0  0  0  0  0  0  0  0  0  0  0
    3.1862    3.9392    0.0000 H   0  0  0  0  0  0  0  0  0  0  0  0
    3.4164    3.0931    0.0000 H   0  0  0  0  0  0  0  0  0  0  0  0
    1.6879    2.1603    0.0000 H   0  0  0  0  0  0  0  0  0  0  0  0
    1.4643    1.3125    0.0000 H   0  0  0  0  0  0  0  0  0  0  0  0
    2.3121    1.0888    0.0000 H   0  0  0  0  0  0  0  0  0  0  0  0
  1  5  1  0  0  0  0
  1  6  1  0  0  0  0
  1  7  1  0  0  0  0
  1  8  2  0  0  0  0
  2 29  1  0  0  0  0
  3 18  1  0  0  0  0
  3 23  1  0  0  0  0
  4 19  2  0  0  0  0
  5 24  1  0  0  0  0
  6 55  1  0  0  0  0
  7 56  1  0  0  0  0
  9 34  1  0  0  0  0
  9 38  1  0  0  0  0
 10 35  1  0  0  0  0
 10 39  1  0  0  0  0
 11 36  1  0  0  0  0
 11 40  1  0  0  0  0
 12 19  1  0  0  0  0
 12 20  1  0  0  0  0
 12 24  1  0  0  0  0
 13 20  1  0  0  0  0
 13 26  2  0  0  0  0
 14 26  1  0  0  0  0
 14 28  1  0  0  0  0
 14 51  1  0  0  0  0
 15 28  2  0  0  0  0
 15 30  1  0  0  0  0
 16 30  1  0  0  0  0
 16 31  1  0  0  0  0
 16 52  1  0  0  0  0
 17 30  2  0  0  0  0
 17 37  1  0  0  0  0
 18 19  1  0  0  0  0
 18 21  1  0  0  0  0
 18 22  1  0  0  0  0
 20 23  2  0  0  0  0
 21 41  1  0  0  0  0
 21 42  1  0  0  0  0
 21 43  1  0  0  0  0
 22 44  1  0  0  0  0
 22 45  1  0  0  0  0
 22 46  1  0  0  0  0
 23 25  1  0  0  0  0
 24 47  1  0  0  0  0
 24 48  1  0  0  0  0
 25 27  2  0  0  0  0
 25 49  1  0  0  0  0
 26 27  1  0  0  0  0
 27 50  1  0  0  0  0
 28 29  1  0  0  0  0
 29 37  2  0  0  0  0
 31 32  2  0  0  0  0
 31 33  1  0  0  0  0
 32 35  1  0  0  0  0
 32 53  1  0  0  0  0
 33 34  2  0  0  0  0
 33 54  1  0  0  0  0
 34 36  1  0  0  0  0
 35 36  2  0  0  0  0
 37 57  1  0  0  0  0
 38 58  1  0  0  0  0
 38 59  1  0  0  0  0
 38 60  1  0  0  0  0
 39 61  1  0  0  0  0
 39 62  1  0  0  0  0
 39 63  1  0  0  0  0
 40 64  1  0  0  0  0
 40 65  1  0  0  0  0
 40 66  1  0  0  0  0
M  END
> <PUBCHEM_COMPOUND_CID>
11671467

> <PUBCHEM_COMPOUND_CANONICALIZED>
1

> <PUBCHEM_CACTVS_COMPLEXITY>
904

> <PUBCHEM_CACTVS_HBOND_ACCEPTOR>
15

> <PUBCHEM_CACTVS_HBOND_DONOR>
4

> <PUBCHEM_CACTVS_ROTATABLE_BOND>
10

> <PUBCHEM_CACTVS_SUBSKEYS>
AAADceB7vQIAAAAAAAAAAAAAAAAAAAAAAAA8WLEAAAAAAACx8AAAHwAQCCAADEzBkg4/9pfIFRCoQDd3dIaCiCkxYqAJ2CF/7JiPL+LE+d+HPCrv1x/a6CewcA8AAEAACgAAQAAAgAAUAACAAAAAAAAAAA==

> <PUBCHEM_IUPAC_OPENEYE_NAME>
[6-[[5-fluoro-2-(3,4,5-trimethoxyanilino)pyrimidin-4-yl]amino]-2,2-dimethyl-3-oxo-pyrido[3,2-b][1,4]oxazin-4-yl]methyl dihydrogen phosphate

> <PUBCHEM_IUPAC_CAS_NAME>
[6-[[5-fluoro-2-(3,4,5-trimethoxyanilino)-4-pyrimidinyl]amino]-2,2-dimethyl-3-oxo-4-pyrido[3,2-b][1,4]oxazinyl]methyl dihydrogen phosphate

> <PUBCHEM_IUPAC_NAME_MARKUP>
[6-[[5-fluoro-2-(3,4,5-trimethoxyanilino)pyrimidin-4-yl]amino]-2,2-dimethyl-3-oxopyrido[3,2-b][1,4]oxazin-4-yl]methyl dihydrogen phosphate

> <PUBCHEM_IUPAC_NAME>
[6-[[5-fluoro-2-(3,4,5-trimethoxyanilino)pyrimidin-4-yl]amino]-2,2-dimethyl-3-oxopyrido[3,2-b][1,4]oxazin-4-yl]methyl dihydrogen phosphate

> <PUBCHEM_IUPAC_SYSTEMATIC_NAME>
[6-[[5-fluoranyl-2-[(3,4,5-trimethoxyphenyl)amino]pyrimidin-4-yl]amino]-2,2-dimethyl-3-oxidanylidene-pyrido[3,2-b][1,4]oxazin-4-yl]methyl dihydrogen phosphate

> <PUBCHEM_IUPAC_TRADITIONAL_NAME>
[6-[[5-fluoro-2-(3,4,5-trimethoxyanilino)pyrimidin-4-yl]amino]-3-keto-2,2-dimethyl-pyrido[3,2-b][1,4]oxazin-4-yl]methyl dihydrogen phosphate

> <PUBCHEM_IUPAC_INCHI>
InChI=1S/C23H26FN6O9P/c1-23(2)21(31)30(11-38-40(32,33)34)20-14(39-23)6-7-17(28-20)27-19-13(24)10-25-22(29-19)26-12-8-15(35-3)18(37-5)16(9-12)36-4/h6-10H,11H2,1-5H3,(H2,32,33,34)(H2,25,26,27,28,29)

> <PUBCHEM_IUPAC_INCHIKEY>
GKDRMWXFWHEQQT-UHFFFAOYSA-N

> <PUBCHEM_XLOGP3_AA>
1.6

> <PUBCHEM_EXACT_MASS>
580.14829159

> <PUBCHEM_MOLECULAR_FORMULA>
C23H26FN6O9P

> <PUBCHEM_MOLECULAR_WEIGHT>
580.5

> <PUBCHEM_OPENEYE_CAN_SMILES>
CC1(C(=O)N(C2=C(O1)C=CC(=N2)NC3=NC(=NC=C3F)NC4=CC(=C(C(=C4)OC)OC)OC)COP(=O)(O)O)C

> <PUBCHEM_OPENEYE_ISO_SMILES>
CC1(C(=O)N(C2=C(O1)C=CC(=N2)NC3=NC(=NC=C3F)NC4=CC(=C(C(=C4)OC)OC)OC)COP(=O)(O)O)C

> <PUBCHEM_CACTVS_TPSA>
187

> <PUBCHEM_MONOISOTOPIC_WEIGHT>
580.14829159

> <PUBCHEM_TOTAL_CHARGE>
0

> <PUBCHEM_HEAVY_ATOM_COUNT>
40

> <PUBCHEM_ATOM_DEF_STEREO_COUNT>
0

> <PUBCHEM_ATOM_UDEF_STEREO_COUNT>
0

> <PUBCHEM_BOND_DEF_STEREO_COUNT>
0

> <PUBCHEM_BOND_UDEF_STEREO_COUNT>
0

> <PUBCHEM_ISOTOPIC_ATOM_COUNT>
0

> <PUBCHEM_COMPONENT_COUNT>
1

> <PUBCHEM_CACTVS_TAUTO_COUNT>
-1

> <PUBCHEM_COORDINATE_TYPE>
1
5
255

> <PUBCHEM_BONDANNOTATIONS>
13  20  8
13  26  8
15  28  8
15  30  8
17  30  8
17  37  8
20  23  8
23  25  8
25  27  8
26  27  8
28  29  8
29  37  8
31  32  8
31  33  8
32  35  8
33  34  8
34  36  8
35  36  8

$$$$
6444692
  -OEChem-11282412102D

 57 60  0     0  0  0  0  0  0999 V2000
    4.6750    7.9907    0.0000 F   0  0  0  0  0  0  0  0  0  0  0  0
    3.6750    8.9907    0.0000 F   0  0  0  0  0  0  0  0  0  0  0  0
    2.6750    7.9907    0.0000 F   0  0  0  0  0  0  0  0  0  0  0  0
    3.4901   -0.7707    0.0000 O   0  0  0  0  0  0  0  0  0  0  0  0
    2.0000    1.9029    0.0000 O   0  0  0  0  0  0  0  0  0  0  0  0
    6.2033   -7.4519    0.0000 N   0  0  0  0  0  0  0  0  0  0  0  0
    7.2033   -7.4519    0.0000 N   0  0  0  0  0  0  0  0  0  0  0  0
    7.5123   -8.4029    0.0000 N   0  0  0  0  0  0  0  0  0  0  0  0
    3.6180    1.9029    0.0000 N   0  0  0  0  0  0  0  0  0  0  0  0
    5.4345   -4.9203    0.0000 C   0  0  0  0  0  0  0  0  0  0  0  0
    6.0223   -5.7293    0.0000 C   0  0  0  0  0  0  0  0  0  0  0  0
    5.8412   -4.0068    0.0000 C   0  0  0  0  0  0  0  0  0  0  0  0
    5.6155   -6.6429    0.0000 C   0  0  0  0  0  0  0  0  0  0  0  0
    5.2534   -3.1977    0.0000 C   0  0  0  0  0  0  0  0  0  0  0  0
    5.6602   -2.2842    0.0000 C   0  0  0  0  0  0  0  0  0  0  0  0
    4.2589   -3.3023    0.0000 C   0  0  0  0  0  0  0  0  0  0  0  0
    5.0724   -1.4752    0.0000 C   0  0  0  0  0  0  0  0  0  0  0  0
    3.6711   -2.4933    0.0000 C   0  0  0  0  0  0  0  0  0  0  0  0
    4.0778   -1.5797    0.0000 C   0  0  0  0  0  0  0  0  0  0  0  0
    5.8943   -8.4029    0.0000 C   0  0  0  0  0  0  0  0  0  0  0  0
    3.8968    0.1429    0.0000 C   0  0  0  0  0  0  0  0  0  0  0  0
    6.7033   -8.9907    0.0000 C   0  0  0  0  0  0  0  0  0  0  0  0
    3.3090    0.9519    0.0000 C   0  0  0  0  0  0  0  0  0  0  0  0
    3.6750    4.9907    0.0000 C   0  0  0  0  0  0  0  0  0  0  0  0
    2.8090    2.4907    0.0000 C   0  0  0  0  0  0  0  0  0  0  0  0
    2.3090    0.9519    0.0000 C   0  0  0  0  0  0  0  0  0  0  0  0
    3.6750    6.9907    0.0000 C   0  0  0  0  0  0  0  0  0  0  0  0
    3.6750    3.9907    0.0000 C   0  0  0  0  0  0  0  0  0  0  0  0
    4.5411    5.4907    0.0000 C   0  0  0  0  0  0  0  0  0  0  0  0
    2.8090    5.4907    0.0000 C   0  0  0  0  0  0  0  0  0  0  0  0
    2.8090    3.4907    0.0000 C   0  0  0  0  0  0  0  0  0  0  0  0
    4.5411    6.4907    0.0000 C   0  0  0  0  0  0  0  0  0  0  0  0
    2.8090    6.4907    0.0000 C   0  0  0  0  0  0  0  0  0  0  0  0
    3.6750    7.9907    0.0000 C   0  0  0  0  0  0  0  0  0  0  0  0
    4.9205   -4.5736    0.0000 H   0  0  0  0  0  0  0  0  0  0  0  0
    5.0038   -5.3663    0.0000 H   0  0  0  0  0  0  0  0  0  0  0  0
    6.5363   -6.0760    0.0000 H   0  0  0  0  0  0  0  0  0  0  0  0
    6.4529   -5.2833    0.0000 H   0  0  0  0  0  0  0  0  0  0  0  0
    6.3552   -4.3534    0.0000 H   0  0  0  0  0  0  0  0  0  0  0  0
    6.2719   -3.5608    0.0000 H   0  0  0  0  0  0  0  0  0  0  0  0
    5.1015   -6.2962    0.0000 H   0  0  0  0  0  0  0  0  0  0  0  0
    5.1848   -7.0888    0.0000 H   0  0  0  0  0  0  0  0  0  0  0  0
    6.2768   -2.2194    0.0000 H   0  0  0  0  0  0  0  0  0  0  0  0
    4.0067   -3.8687    0.0000 H   0  0  0  0  0  0  0  0  0  0  0  0
    5.3246   -0.9088    0.0000 H   0  0  0  0  0  0  0  0  0  0  0  0
    3.0545   -2.5580    0.0000 H   0  0  0  0  0  0  0  0  0  0  0  0
    5.3046   -8.5945    0.0000 H   0  0  0  0  0  0  0  0  0  0  0  0
    4.4108   -0.2038    0.0000 H   0  0  0  0  0  0  0  0  0  0  0  0
    4.3275    0.5889    0.0000 H   0  0  0  0  0  0  0  0  0  0  0  0
    6.7033   -9.6107    0.0000 H   0  0  0  0  0  0  0  0  0  0  0  0
    1.9446    0.4503    0.0000 H   0  0  0  0  0  0  0  0  0  0  0  0
    5.0780    5.1807    0.0000 H   0  0  0  0  0  0  0  0  0  0  0  0
    2.2721    5.1807    0.0000 H   0  0  0  0  0  0  0  0  0  0  0  0
    4.2120    3.6807    0.0000 H   0  0  0  0  0  0  0  0  0  0  0  0
    2.2721    3.8007    0.0000 H   0  0  0  0  0  0  0  0  0  0  0  0
    5.0780    6.8007    0.0000 H   0  0  0  0  0  0  0  0  0  0  0  0
    2.2721    6.8007    0.0000 H   0  0  0  0  0  0  0  0  0  0  0  0
  1 34  1  0  0  0  0
  2 34  1  0  0  0  0
  3 34  1  0  0  0  0
  4 19  1  0  0  0  0
  4 21  1  0  0  0  0
  5 25  1  0  0  0  0
  5 26  1  0  0  0  0
  6  7  1  0  0  0  0
  6 13  1  0  0  0  0
  6 20  1  0  0  0  0
  7  8  2  0  0  0  0
  8 22  1  0  0  0  0
  9 23  1  0  0  0  0
  9 25  2  0  0  0  0
 10 11  1  0  0  0  0
 10 12  1  0  0  0  0
 10 35  1  0  0  0  0
 10 36  1  0  0  0  0
 11 13  1  0  0  0  0
 11 37  1  0  0  0  0
 11 38  1  0  0  0  0
 12 14  1  0  0  0  0
 12 39  1  0  0  0  0
 12 40  1  0  0  0  0
 13 41  1  0  0  0  0
 13 42  1  0  0  0  0
 14 15  2  0  0  0  0
 14 16  1  0  0  0  0
 15 17  1  0  0  0  0
 15 43  1  0  0  0  0
 16 18  2  0  0  0  0
 16 44  1  0  0  0  0
 17 19  2  0  0  0  0
 17 45  1  0  0  0  0
 18 19  1  0  0  0  0
 18 46  1  0  0  0  0
 20 22  2  0  0  0  0
 20 47  1  0  0  0  0
 21 23  1  0  0  0  0
 21 48  1  0  0  0  0
 21 49  1  0  0  0  0
 22 50  1  0  0  0  0
 23 26  2  0  0  0  0
 24 28  1  0  0  0  0
 24 29  2  0  0  0  0
 24 30  1  0  0  0  0
 25 31  1  0  0  0  0
 26 51  1  0  0  0  0
 27 32  2  0  0  0  0
 27 33  1  0  0  0  0
 27 34  1  0  0  0  0
 28 31  2  0  0  0  0
 28 54  1  0  0  0  0
 29 32  1  0  0  0  0
 29 52  1  0  0  0  0
 30 33  2  0  0  0  0
 30 53  1  0  0  0  0
 31 55  1  0  0  0  0
 32 56  1  0  0  0  0
 33 57  1  0  0  0  0
M  END
> <PUBCHEM_COMPOUND_CID>
6444692

> <PUBCHEM_COMPOUND_CANONICALIZED>
1

> <PUBCHEM_CACTVS_COMPLEXITY>
620

> <PUBCHEM_CACTVS_HBOND_ACCEPTOR>
8

> <PUBCHEM_CACTVS_HBOND_DONOR>
0

> <PUBCHEM_CACTVS_ROTATABLE_BOND>
10

> <PUBCHEM_CACTVS_SUBSKEYS>
AAADceB7sYAAAAAAAAAAAAAAAAAAAWLAAAAwYAAAAAAAAAAB9AAAHwAIAAAADAzhnhY8hpIIFECqAz131ASCjCQ78iAYyAGfONgOZyaEsTqfOCCl5BGYqYeQwKAOYAAAAAAAAADAAAAAAAAAAAAAAAAAAA==

> <PUBCHEM_IUPAC_OPENEYE_NAME>
4-[[4-[4-(triazol-1-yl)butyl]phenoxy]methyl]-2-[(E)-2-[4-(trifluoromethyl)phenyl]vinyl]oxazole

> <PUBCHEM_IUPAC_CAS_NAME>
4-[[4-[4-(1-triazolyl)butyl]phenoxy]methyl]-2-[(E)-2-[4-(trifluoromethyl)phenyl]ethenyl]oxazole

> <PUBCHEM_IUPAC_NAME_MARKUP>
4-[[4-[4-(triazol-1-yl)butyl]phenoxy]methyl]-2-[(<I>E</I>)-2-[4-(trifluoromethyl)phenyl]ethenyl]-1,3-oxazole

> <PUBCHEM_IUPAC_NAME>
4-[[4-[4-(triazol-1-yl)butyl]phenoxy]methyl]-2-[(E)-2-[4-(trifluoromethyl)phenyl]ethenyl]-1,3-oxazole

> <PUBCHEM_IUPAC_SYSTEMATIC_NAME>
4-[[4-[4-(1,2,3-triazol-1-yl)butyl]phenoxy]methyl]-2-[(E)-2-[4-(trifluoromethyl)phenyl]ethenyl]-1,3-oxazole

> <PUBCHEM_IUPAC_TRADITIONAL_NAME>
4-[[4-[4-(triazol-1-yl)butyl]phenoxy]methyl]-2-[(E)-2-[4-(trifluoromethyl)phenyl]vinyl]oxazole

> <PUBCHEM_IUPAC_INCHI>
InChI=1S/C25H23F3N4O2/c26-25(27,28)21-9-4-20(5-10-21)8-13-24-30-22(18-34-24)17-33-23-11-6-19(7-12-23)3-1-2-15-32-16-14-29-31-32/h4-14,16,18H,1-3,15,17H2/b13-8+

> <PUBCHEM_IUPAC_INCHIKEY>
ZTFBIUXIQYRUNT-MDWZMJQESA-N

> <PUBCHEM_XLOGP3_AA>
5.4

> <PUBCHEM_EXACT_MASS>
468.17731048

> <PUBCHEM_MOLECULAR_FORMULA>
C25H23F3N4O2

> <PUBCHEM_MOLECULAR_WEIGHT>
468.5

> <PUBCHEM_OPENEYE_CAN_SMILES>
C1=CC(=CC=C1CCCCN2C=CN=N2)OCC3=COC(=N3)C=CC4=CC=C(C=C4)C(F)(F)F

> <PUBCHEM_OPENEYE_ISO_SMILES>
C1=CC(=CC=C1CCCCN2C=CN=N2)OCC3=COC(=N3)/C=C/C4=CC=C(C=C4)C(F)(F)F

> <PUBCHEM_CACTVS_TPSA>
66

> <PUBCHEM_MONOISOTOPIC_WEIGHT>
468.17731048

> <PUBCHEM_TOTAL_CHARGE>
0

> <PUBCHEM_HEAVY_ATOM_COUNT>
34

> <PUBCHEM_ATOM_DEF_STEREO_COUNT>
0

> <PUBCHEM_ATOM_UDEF_STEREO_COUNT>
0

> <PUBCHEM_BOND_DEF_STEREO_COUNT>
1

> <PUBCHEM_BOND_UDEF_STEREO_COUNT>
0

> <PUBCHEM_ISOTOPIC_ATOM_COUNT>
0

> <PUBCHEM_COMPONENT_COUNT>
1

> <PUBCHEM_CACTVS_TAUTO_COUNT>
-1

> <PUBCHEM_COORDINATE_TYPE>
1
5
255

> <PUBCHEM_BONDANNOTATIONS>
14  15  8
14  16  8
15  17  8
16  18  8
17  19  8
18  19  8
20  22  8
23  26  8
24  29  8
24  30  8
27  32  8
27  33  8
29  32  8
30  33  8
5  25  8
5  26  8
6  20  8
6  7  8
7  8  8
8  22  8
9  23  8
9  25  8

$$$$
118115473
  -OEChem-11282412102D

 40 42  0     1  0  0  0  0  0999 V2000
    3.7320   -0.3030    0.0000 O   0  0  0  0  0  0  0  0  0  0  0  0
    4.5981    1.1970    0.0000 N   0  0  0  0  0  0  0  0  0  0  0  0
    7.1962    0.6970    0.0000 N   0  0  0  0  0  0  0  0  0  0  0  0
    6.3301   -0.8030    0.0000 N   0  0  0  0  0  0  0  0  0  0  0  0
    9.0084   -2.1077    0.0000 N   0  0  0  0  0  0  0  0  0  0  0  0
    7.1962   -2.3030    0.0000 N   0  0  0  0  0  0  0  0  0  0  0  0
    6.3301    1.1970    0.0000 C   0  0  2  0  0  0  0  0  0  0  0  0
    4.5981    2.1970    0.0000 C   0  0  2  0  0  0  0  0  0  0  0  0
    6.3301    2.1970    0.0000 C   0  0  0  0  0  0  0  0  0  0  0  0
    5.4641    2.6970    0.0000 C   0  0  0  0  0  0  0  0  0  0  0  0
    5.4641    0.6970    0.0000 C   0  0  0  0  0  0  0  0  0  0  0  0
    3.7320    2.6970    0.0000 C   0  0  0  0  0  0  0  0  0  0  0  0
    3.7320    0.6970    0.0000 C   0  0  0  0  0  0  0  0  0  0  0  0
    7.1962   -0.3030    0.0000 C   0  0  0  0  0  0  0  0  0  0  0  0
    8.0622   -0.8030    0.0000 C   0  0  0  0  0  0  0  0  0  0  0  0
    2.8660    1.1970    0.0000 C   0  0  0  0  0  0  0  0  0  0  0  0
    8.0622   -1.8030    0.0000 C   0  0  0  0  0  0  0  0  0  0  0  0
    9.0084   -0.4982    0.0000 C   0  0  0  0  0  0  0  0  0  0  0  0
    9.5920   -1.3030    0.0000 C   0  0  0  0  0  0  0  0  0  0  0  0
    6.3301   -1.8030    0.0000 C   0  0  0  0  0  0  0  0  0  0  0  0
    2.0000    0.6970    0.0000 C   0  0  0  0  0  0  0  0  0  0  0  0
    6.8671    1.5070    0.0000 H   0  0  0  0  0  0  0  0  0  0  0  0
    4.0611    1.8870    0.0000 H   0  0  0  0  0  0  0  0  0  0  0  0
    6.9407    2.0894    0.0000 H   0  0  0  0  0  0  0  0  0  0  0  0
    6.5422    2.7796    0.0000 H   0  0  0  0  0  0  0  0  0  0  0  0
    5.8626    3.1720    0.0000 H   0  0  0  0  0  0  0  0  0  0  0  0
    5.0656    3.1720    0.0000 H   0  0  0  0  0  0  0  0  0  0  0  0
    5.0656    0.2221    0.0000 H   0  0  0  0  0  0  0  0  0  0  0  0
    5.8626    0.2221    0.0000 H   0  0  0  0  0  0  0  0  0  0  0  0
    7.7331    1.0070    0.0000 H   0  0  0  0  0  0  0  0  0  0  0  0
    4.0420    3.2340    0.0000 H   0  0  0  0  0  0  0  0  0  0  0  0
    3.1951    3.0070    0.0000 H   0  0  0  0  0  0  0  0  0  0  0  0
    3.4220    2.1601    0.0000 H   0  0  0  0  0  0  0  0  0  0  0  0
    2.8660    1.8170    0.0000 H   0  0  0  0  0  0  0  0  0  0  0  0
    9.2010    0.0911    0.0000 H   0  0  0  0  0  0  0  0  0  0  0  0
    9.2010   -2.6970    0.0000 H   0  0  0  0  0  0  0  0  0  0  0  0
   10.2120   -1.3030    0.0000 H   0  0  0  0  0  0  0  0  0  0  0  0
    5.7932   -2.1130    0.0000 H   0  0  0  0  0  0  0  0  0  0  0  0
    1.4631    1.0070    0.0000 H   0  0  0  0  0  0  0  0  0  0  0  0
    2.0000    0.0770    0.0000 H   0  0  0  0  0  0  0  0  0  0  0  0
  1 13  2  0  0  0  0
  2  8  1  0  0  0  0
  2 11  1  0  0  0  0
  2 13  1  0  0  0  0
  7  3  1  1  0  0  0
  3 14  1  0  0  0  0
  3 30  1  0  0  0  0
  4 14  2  0  0  0  0
  4 20  1  0  0  0  0
  5 17  1  0  0  0  0
  5 19  1  0  0  0  0
  5 36  1  0  0  0  0
  6 17  1  0  0  0  0
  6 20  2  0  0  0  0
  7  9  1  0  0  0  0
  7 11  1  0  0  0  0
  7 22  1  0  0  0  0
  8 10  1  0  0  0  0
  8 12  1  1  0  0  0
  8 23  1  0  0  0  0
  9 10  1  0  0  0  0
  9 24  1  0  0  0  0
  9 25  1  0  0  0  0
 10 26  1  0  0  0  0
 10 27  1  0  0  0  0
 11 28  1  0  0  0  0
 11 29  1  0  0  0  0
 12 31  1  0  0  0  0
 12 32  1  0  0  0  0
 12 33  1  0  0  0  0
 13 16  1  0  0  0  0
 14 15  1  0  0  0  0
 15 17  2  0  0  0  0
 15 18  1  0  0  0  0
 16 21  2  0  0  0  0
 16 34  1  0  0  0  0
 18 19  2  0  0  0  0
 18 35  1  0  0  0  0
 19 37  1  0  0  0  0
 20 38  1  0  0  0  0
 21 39  1  0  0  0  0
 21 40  1  0  0  0  0
M  END
> <PUBCHEM_COMPOUND_CID>
118115473

> <PUBCHEM_COMPOUND_CANONICALIZED>
1

> <PUBCHEM_CACTVS_COMPLEXITY>
402

> <PUBCHEM_CACTVS_HBOND_ACCEPTOR>
4

> <PUBCHEM_CACTVS_HBOND_DONOR>
2

> <PUBCHEM_CACTVS_ROTATABLE_BOND>
3

> <PUBCHEM_CACTVS_SUBSKEYS>
AAADceBzoAAAAAAAAAAAAAAAAAAAAWAAAAAsWAAAAAAAAFgB+AAAHgAQAAAADCjBmwQ/sN/JkACoAjN3dACCgCmxAqAJ2aA4ZNiIaMJAyMEUBAhIFgLAQKEQAAAIAAAAAAAAAAAAAAAAAAAAAAAAAAAAAA==

> <PUBCHEM_IUPAC_OPENEYE_NAME>
1-[(2S,5R)-2-methyl-5-(7H-pyrrolo[2,3-d]pyrimidin-4-ylamino)-1-piperidyl]prop-2-en-1-one

> <PUBCHEM_IUPAC_CAS_NAME>
1-[(2S,5R)-2-methyl-5-(7H-pyrrolo[2,3-d]pyrimidin-4-ylamino)-1-piperidinyl]-2-propen-1-one

> <PUBCHEM_IUPAC_NAME_MARKUP>
1-[(2<I>S</I>,5<I>R</I>)-2-methyl-5-(7<I>H</I>-pyrrolo[2,3-d]pyrimidin-4-ylamino)piperidin-1-yl]prop-2-en-1-one

> <PUBCHEM_IUPAC_NAME>
1-[(2S,5R)-2-methyl-5-(7H-pyrrolo[2,3-d]pyrimidin-4-ylamino)piperidin-1-yl]prop-2-en-1-one

> <PUBCHEM_IUPAC_SYSTEMATIC_NAME>
1-[(2S,5R)-2-methyl-5-(7H-pyrrolo[2,3-d]pyrimidin-4-ylamino)piperidin-1-yl]prop-2-en-1-one

> <PUBCHEM_IUPAC_TRADITIONAL_NAME>
1-[(2S,5R)-2-methyl-5-(7H-pyrrolo[2,3-d]pyrimidin-4-ylamino)piperidino]prop-2-en-1-one

> <PUBCHEM_IUPAC_INCHI>
InChI=1S/C15H19N5O/c1-3-13(21)20-8-11(5-4-10(20)2)19-15-12-6-7-16-14(12)17-9-18-15/h3,6-7,9-11H,1,4-5,8H2,2H3,(H2,16,17,18,19)/t10-,11+/m0/s1

> <PUBCHEM_IUPAC_INCHIKEY>
CBRJPFGIXUFMTM-WDEREUQCSA-N

> <PUBCHEM_XLOGP3_AA>
2.1

> <PUBCHEM_EXACT_MASS>
285.15896025

> <PUBCHEM_MOLECULAR_FORMULA>
C15H19N5O

> <PUBCHEM_MOLECULAR_WEIGHT>
285.34

> <PUBCHEM_OPENEYE_CAN_SMILES>
CC1CCC(CN1C(=O)C=C)NC2=NC=NC3=C2C=CN3

> <PUBCHEM_OPENEYE_ISO_SMILES>
C[C@H]1CC[C@H](CN1C(=O)C=C)NC2=NC=NC3=C2C=CN3

> <PUBCHEM_CACTVS_TPSA>
73.9

> <PUBCHEM_MONOISOTOPIC_WEIGHT>
285.15896025

> <PUBCHEM_TOTAL_CHARGE>
0

> <PUBCHEM_HEAVY_ATOM_COUNT>
21

> <PUBCHEM_ATOM_DEF_STEREO_COUNT>
2

> <PUBCHEM_ATOM_UDEF_STEREO_COUNT>
0

> <PUBCHEM_BOND_DEF_STEREO_COUNT>
0

> <PUBCHEM_BOND_UDEF_STEREO_COUNT>
0

> <PUBCHEM_ISOTOPIC_ATOM_COUNT>
0

> <PUBCHEM_COMPONENT_COUNT>
1

> <PUBCHEM_CACTVS_TAUTO_COUNT>
-1

> <PUBCHEM_COORDINATE_TYPE>
1
5
255

> <PUBCHEM_BONDANNOTATIONS>
14  15  8
15  17  8
15  18  8
18  19  8
7  3  5
4  14  8
4  20  8
5  17  8
5  19  8
6  17  8
6  20  8
8  12  5

$$$$
10366136
  -OEChem-11282412102D

 62 67  0     0  0  0  0  0  0999 V2000
   12.7153    2.0040    0.0000 O   0  0  0  0  0  0  0  0  0  0  0  0
   10.2414    1.6196    0.0000 O   0  0  0  0  0  0  0  0  0  0  0  0
    2.9176   -0.4388    0.0000 N   0  0  0  0  0  0  0  0  0  0  0  0
    2.9523   -3.4386    0.0000 N   0  0  0  0  0  0  0  0  0  0  0  0
    4.6660    0.5958    0.0000 N   0  0  0  0  0  0  0  0  0  0  0  0
    6.3981    0.5958    0.0000 N   0  0  0  0  0  0  0  0  0  0  0  0
    7.4730   -0.6021    0.0000 N   0  0  0  0  0  0  0  0  0  0  0  0
   11.5306    2.7763    0.0000 C   0  0  0  0  0  0  0  0  0  0  0  0
   12.5091    2.9825    0.0000 C   0  0  0  0  0  0  0  0  0  0  0  0
   11.7368    1.7978    0.0000 C   0  0  0  0  0  0  0  0  0  0  0  0
   10.5521    2.5701    0.0000 C   0  0  0  0  0  0  0  0  0  0  0  0
    2.9408   -2.4387    0.0000 C   0  0  0  0  0  0  0  0  0  0  0  0
   11.3243    3.7548    0.0000 C   0  0  0  0  0  0  0  0  0  0  0  0
    2.0690   -1.9487    0.0000 C   0  0  0  0  0  0  0  0  0  0  0  0
    3.8009   -1.9287    0.0000 C   0  0  0  0  0  0  0  0  0  0  0  0
    2.0574   -0.9488    0.0000 C   0  0  0  0  0  0  0  0  0  0  0  0
    3.7894   -0.9288    0.0000 C   0  0  0  0  0  0  0  0  0  0  0  0
    2.9061    0.5611    0.0000 C   0  0  0  0  0  0  0  0  0  0  0  0
    3.8000    1.0958    0.0000 C   0  0  0  0  0  0  0  0  0  0  0  0
    2.0000    1.0750    0.0000 C   0  0  0  0  0  0  0  0  0  0  0  0
    9.2629    1.4133    0.0000 C   0  0  0  0  0  0  0  0  0  0  0  0
    3.8000    2.0958    0.0000 C   0  0  0  0  0  0  0  0  0  0  0  0
    5.5321    1.0958    0.0000 C   0  0  0  0  0  0  0  0  0  0  0  0
    2.0000    2.1166    0.0000 C   0  0  0  0  0  0  0  0  0  0  0  0
    7.3059    1.0009    0.0000 C   0  0  0  0  0  0  0  0  0  0  0  0
    8.9522    0.4628    0.0000 C   0  0  0  0  0  0  0  0  0  0  0  0
    2.9061    2.6304    0.0000 C   0  0  0  0  0  0  0  0  0  0  0  0
    7.9737    0.2566    0.0000 C   0  0  0  0  0  0  0  0  0  0  0  0
    8.5950    2.1576    0.0000 C   0  0  0  0  0  0  0  0  0  0  0  0
    4.6660    2.5958    0.0000 C   0  0  0  0  0  0  0  0  0  0  0  0
    7.6165    1.9514    0.0000 C   0  0  0  0  0  0  0  0  0  0  0  0
    5.5321    2.0958    0.0000 C   0  0  0  0  0  0  0  0  0  0  0  0
    6.5011   -0.3929    0.0000 C   0  0  0  0  0  0  0  0  0  0  0  0
   13.1157    3.1104    0.0000 H   0  0  0  0  0  0  0  0  0  0  0  0
   12.3812    3.5892    0.0000 H   0  0  0  0  0  0  0  0  0  0  0  0
   11.1301    1.6699    0.0000 H   0  0  0  0  0  0  0  0  0  0  0  0
   11.8646    1.1911    0.0000 H   0  0  0  0  0  0  0  0  0  0  0  0
   10.5315    3.1897    0.0000 H   0  0  0  0  0  0  0  0  0  0  0  0
    9.9382    2.6574    0.0000 H   0  0  0  0  0  0  0  0  0  0  0  0
    2.4074   -2.7549    0.0000 H   0  0  0  0  0  0  0  0  0  0  0  0
    1.4572   -1.8481    0.0000 H   0  0  0  0  0  0  0  0  0  0  0  0
    1.8637   -2.5338    0.0000 H   0  0  0  0  0  0  0  0  0  0  0  0
    4.0197   -2.5088    0.0000 H   0  0  0  0  0  0  0  0  0  0  0  0
    4.4102   -1.8140    0.0000 H   0  0  0  0  0  0  0  0  0  0  0  0
   11.9310    3.8826    0.0000 H   0  0  0  0  0  0  0  0  0  0  0  0
   11.1965    4.3615    0.0000 H   0  0  0  0  0  0  0  0  0  0  0  0
   10.7177    3.6269    0.0000 H   0  0  0  0  0  0  0  0  0  0  0  0
    1.8387   -0.3687    0.0000 H   0  0  0  0  0  0  0  0  0  0  0  0
    1.4482   -1.0635    0.0000 H   0  0  0  0  0  0  0  0  0  0  0  0
    4.4012   -1.0294    0.0000 H   0  0  0  0  0  0  0  0  0  0  0  0
    3.9947   -0.3437    0.0000 H   0  0  0  0  0  0  0  0  0  0  0  0
    2.4190   -3.7548    0.0000 H   0  0  0  0  0  0  0  0  0  0  0  0
    3.4928   -3.7424    0.0000 H   0  0  0  0  0  0  0  0  0  0  0  0
    1.4643    0.7629    0.0000 H   0  0  0  0  0  0  0  0  0  0  0  0
    1.4643    2.4287    0.0000 H   0  0  0  0  0  0  0  0  0  0  0  0
    9.3663    0.0013    0.0000 H   0  0  0  0  0  0  0  0  0  0  0  0
    2.9132    3.2504    0.0000 H   0  0  0  0  0  0  0  0  0  0  0  0
    8.7876    2.7470    0.0000 H   0  0  0  0  0  0  0  0  0  0  0  0
    4.6660    3.2158    0.0000 H   0  0  0  0  0  0  0  0  0  0  0  0
    7.2025    2.4129    0.0000 H   0  0  0  0  0  0  0  0  0  0  0  0
    6.0690    2.4058    0.0000 H   0  0  0  0  0  0  0  0  0  0  0  0
    6.0397   -0.8070    0.0000 H   0  0  0  0  0  0  0  0  0  0  0  0
  1  9  1  0  0  0  0
  1 10  1  0  0  0  0
  2 11  1  0  0  0  0
  2 21  1  0  0  0  0
  3 16  1  0  0  0  0
  3 17  1  0  0  0  0
  3 18  1  0  0  0  0
  4 12  1  0  0  0  0
  4 52  1  0  0  0  0
  4 53  1  0  0  0  0
  5 19  1  0  0  0  0
  5 23  2  0  0  0  0
  6 23  1  0  0  0  0
  6 25  1  0  0  0  0
  6 33  1  0  0  0  0
  7 28  1  0  0  0  0
  7 33  2  0  0  0  0
  8  9  1  0  0  0  0
  8 10  1  0  0  0  0
  8 11  1  0  0  0  0
  8 13  1  0  0  0  0
  9 34  1  0  0  0  0
  9 35  1  0  0  0  0
 10 36  1  0  0  0  0
 10 37  1  0  0  0  0
 11 38  1  0  0  0  0
 11 39  1  0  0  0  0
 12 14  1  0  0  0  0
 12 15  1  0  0  0  0
 12 40  1  0  0  0  0
 13 45  1  0  0  0  0
 13 46  1  0  0  0  0
 13 47  1  0  0  0  0
 14 16  1  0  0  0  0
 14 41  1  0  0  0  0
 14 42  1  0  0  0  0
 15 17  1  0  0  0  0
 15 43  1  0  0  0  0
 15 44  1  0  0  0  0
 16 48  1  0  0  0  0
 16 49  1  0  0  0  0
 17 50  1  0  0  0  0
 17 51  1  0  0  0  0
 18 19  1  0  0  0  0
 18 20  2  0  0  0  0
 19 22  2  0  0  0  0
 20 24  1  0  0  0  0
 20 54  1  0  0  0  0
 21 26  2  0  0  0  0
 21 29  1  0  0  0  0
 22 27  1  0  0  0  0
 22 30  1  0  0  0  0
 23 32  1  0  0  0  0
 24 27  2  0  0  0  0
 24 55  1  0  0  0  0
 25 28  2  0  0  0  0
 25 31  1  0  0  0  0
 26 28  1  0  0  0  0
 26 56  1  0  0  0  0
 27 57  1  0  0  0  0
 29 31  2  0  0  0  0
 29 58  1  0  0  0  0
 30 32  2  0  0  0  0
 30 59  1  0  0  0  0
 31 60  1  0  0  0  0
 32 61  1  0  0  0  0
 33 62  1  0  0  0  0
M  END
> <PUBCHEM_COMPOUND_CID>
10366136

> <PUBCHEM_COMPOUND_CANONICALIZED>
1

> <PUBCHEM_CACTVS_COMPLEXITY>
667

> <PUBCHEM_CACTVS_HBOND_ACCEPTOR>
6

> <PUBCHEM_CACTVS_HBOND_DONOR>
1

> <PUBCHEM_CACTVS_ROTATABLE_BOND>
5

> <PUBCHEM_CACTVS_SUBSKEYS>
AAADceB7sAAAAAAAAAAAAAAAAABIAWAAAAA8eIEAAAAAAFix/gAAHgAQAAAADizhngY39vdMFACgAyZjZACCiC0xMqAJ2KA+fJiMbuLE+ZuWOCjv0BvI6Cew0IMOAEAAQgACACAAgACEAAQAQAAAAAAAAA==

> <PUBCHEM_IUPAC_OPENEYE_NAME>
1-[2-[5-[(3-methyloxetan-3-yl)methoxy]benzimidazol-1-yl]-8-quinolyl]piperidin-4-amine

> <PUBCHEM_IUPAC_CAS_NAME>
1-[2-[5-[(3-methyl-3-oxetanyl)methoxy]-1-benzimidazolyl]-8-quinolinyl]-4-piperidinamine

> <PUBCHEM_IUPAC_NAME_MARKUP>
1-[2-[5-[(3-methyloxetan-3-yl)methoxy]benzimidazol-1-yl]quinolin-8-yl]piperidin-4-amine

> <PUBCHEM_IUPAC_NAME>
1-[2-[5-[(3-methyloxetan-3-yl)methoxy]benzimidazol-1-yl]quinolin-8-yl]piperidin-4-amine

> <PUBCHEM_IUPAC_SYSTEMATIC_NAME>
1-[2-[5-[(3-methyloxetan-3-yl)methoxy]benzimidazol-1-yl]quinolin-8-yl]piperidin-4-amine

> <PUBCHEM_IUPAC_TRADITIONAL_NAME>
[1-[2-[5-[(3-methyloxetan-3-yl)methoxy]benzimidazol-1-yl]-8-quinolyl]-4-piperidyl]amine

> <PUBCHEM_IUPAC_INCHI>
InChI=1S/C26H29N5O2/c1-26(14-32-15-26)16-33-20-6-7-22-21(13-20)28-17-31(22)24-8-5-18-3-2-4-23(25(18)29-24)30-11-9-19(27)10-12-30/h2-8,13,17,19H,9-12,14-16,27H2,1H3

> <PUBCHEM_IUPAC_INCHIKEY>
DYNHJHQFHQTFTP-UHFFFAOYSA-N

> <PUBCHEM_XLOGP3_AA>
3.7

> <PUBCHEM_EXACT_MASS>
443.23212518

> <PUBCHEM_MOLECULAR_FORMULA>
C26H29N5O2

> <PUBCHEM_MOLECULAR_WEIGHT>
443.5

> <PUBCHEM_OPENEYE_CAN_SMILES>
CC1(COC1)COC2=CC3=C(C=C2)N(C=N3)C4=NC5=C(C=CC=C5N6CCC(CC6)N)C=C4

> <PUBCHEM_OPENEYE_ISO_SMILES>
CC1(COC1)COC2=CC3=C(C=C2)N(C=N3)C4=NC5=C(C=CC=C5N6CCC(CC6)N)C=C4

> <PUBCHEM_CACTVS_TPSA>
78.4

> <PUBCHEM_MONOISOTOPIC_WEIGHT>
443.23212518

> <PUBCHEM_TOTAL_CHARGE>
0

> <PUBCHEM_HEAVY_ATOM_COUNT>
33

> <PUBCHEM_ATOM_DEF_STEREO_COUNT>
0

> <PUBCHEM_ATOM_UDEF_STEREO_COUNT>
0

> <PUBCHEM_BOND_DEF_STEREO_COUNT>
0

> <PUBCHEM_BOND_UDEF_STEREO_COUNT>
0

> <PUBCHEM_ISOTOPIC_ATOM_COUNT>
0

> <PUBCHEM_COMPONENT_COUNT>
1

> <PUBCHEM_CACTVS_TAUTO_COUNT>
-1

> <PUBCHEM_COORDINATE_TYPE>
1
5
255

> <PUBCHEM_BONDANNOTATIONS>
18  19  8
18  20  8
19  22  8
20  24  8
21  26  8
21  29  8
22  27  8
22  30  8
23  32  8
24  27  8
25  28  8
25  31  8
26  28  8
29  31  8
30  32  8
5  19  8
5  23  8
6  25  8
6  33  8
7  28  8
7  33  8

$$$$
6918508
  -OEChem-11282412102D

 46 49  0     0  0  0  0  0  0999 V2000
   10.6418   -3.0445    0.0000 Cl  0  0  0  0  0  0  0  0  0  0  0  0
   12.3853   -2.0646    0.0000 F   0  0  0  0  0  0  0  0  0  0  0  0
    2.8660    2.5099    0.0000 N   0  0  0  0  0  0  0  0  0  0  0  0
    5.4641    1.0099    0.0000 N   0  0  0  0  0  0  0  0  0  0  0  0
    7.1962    1.0099    0.0000 N   0  0  0  0  0  0  0  0  0  0  0  0
    6.3301    2.5099    0.0000 N   0  0  0  0  0  0  0  0  0  0  0  0
    8.9446   -0.0247    0.0000 N   0  0  0  0  0  0  0  0  0  0  0  0
    8.9561    3.0445    0.0000 N   0  0  0  0  0  0  0  0  0  0  0  0
    9.8622    1.4891    0.0000 N   0  0  0  0  0  0  0  0  0  0  0  0
    4.5981    1.5099    0.0000 C   0  0  0  0  0  0  0  0  0  0  0  0
    4.5981    2.5099    0.0000 C   0  0  0  0  0  0  0  0  0  0  0  0
    3.7320    1.0099    0.0000 C   0  0  0  0  0  0  0  0  0  0  0  0
    3.7320    3.0099    0.0000 C   0  0  0  0  0  0  0  0  0  0  0  0
    2.8660    1.5099    0.0000 C   0  0  0  0  0  0  0  0  0  0  0  0
    2.0000    3.0099    0.0000 C   0  0  0  0  0  0  0  0  0  0  0  0
    6.3301    1.5099    0.0000 C   0  0  0  0  0  0  0  0  0  0  0  0
    8.0622    1.5099    0.0000 C   0  0  0  0  0  0  0  0  0  0  0  0
    8.0622    2.5099    0.0000 C   0  0  0  0  0  0  0  0  0  0  0  0
    7.1962    3.0099    0.0000 C   0  0  0  0  0  0  0  0  0  0  0  0
    8.9561    0.9752    0.0000 C   0  0  0  0  0  0  0  0  0  0  0  0
    9.8047   -0.5347    0.0000 C   0  0  0  0  0  0  0  0  0  0  0  0
    9.8622    2.5307    0.0000 C   0  0  0  0  0  0  0  0  0  0  0  0
    9.7932   -1.5346    0.0000 C   0  0  0  0  0  0  0  0  0  0  0  0
   10.6765   -0.0447    0.0000 C   0  0  0  0  0  0  0  0  0  0  0  0
   10.6534   -2.0446    0.0000 C   0  0  0  0  0  0  0  0  0  0  0  0
   11.5367   -0.5547    0.0000 C   0  0  0  0  0  0  0  0  0  0  0  0
   11.5251   -1.5547    0.0000 C   0  0  0  0  0  0  0  0  0  0  0  0
    4.5981    0.8899    0.0000 H   0  0  0  0  0  0  0  0  0  0  0  0
    5.2087    2.4022    0.0000 H   0  0  0  0  0  0  0  0  0  0  0  0
    4.8101    3.0925    0.0000 H   0  0  0  0  0  0  0  0  0  0  0  0
    3.3335    0.5349    0.0000 H   0  0  0  0  0  0  0  0  0  0  0  0
    4.1306    0.5349    0.0000 H   0  0  0  0  0  0  0  0  0  0  0  0
    4.1306    3.4848    0.0000 H   0  0  0  0  0  0  0  0  0  0  0  0
    3.3335    3.4848    0.0000 H   0  0  0  0  0  0  0  0  0  0  0  0
    2.2554    1.6175    0.0000 H   0  0  0  0  0  0  0  0  0  0  0  0
    2.6540    0.9273    0.0000 H   0  0  0  0  0  0  0  0  0  0  0  0
    5.4641    0.3899    0.0000 H   0  0  0  0  0  0  0  0  0  0  0  0
    2.3100    3.5468    0.0000 H   0  0  0  0  0  0  0  0  0  0  0  0
    1.4631    3.3199    0.0000 H   0  0  0  0  0  0  0  0  0  0  0  0
    1.6900    2.4729    0.0000 H   0  0  0  0  0  0  0  0  0  0  0  0
    7.1962    3.6299    0.0000 H   0  0  0  0  0  0  0  0  0  0  0  0
    8.4041   -0.3285    0.0000 H   0  0  0  0  0  0  0  0  0  0  0  0
   10.3979    2.8428    0.0000 H   0  0  0  0  0  0  0  0  0  0  0  0
    9.2527   -1.8384    0.0000 H   0  0  0  0  0  0  0  0  0  0  0  0
   10.6837    0.5752    0.0000 H   0  0  0  0  0  0  0  0  0  0  0  0
   12.0772   -0.2510    0.0000 H   0  0  0  0  0  0  0  0  0  0  0  0
  1 25  1  0  0  0  0
  2 27  1  0  0  0  0
  3 13  1  0  0  0  0
  3 14  1  0  0  0  0
  3 15  1  0  0  0  0
  4 10  1  0  0  0  0
  4 16  1  0  0  0  0
  4 37  1  0  0  0  0
  5 16  1  0  0  0  0
  5 17  2  0  0  0  0
  6 16  2  0  0  0  0
  6 19  1  0  0  0  0
  7 20  1  0  0  0  0
  7 21  1  0  0  0  0
  7 42  1  0  0  0  0
  8 18  1  0  0  0  0
  8 22  2  0  0  0  0
  9 20  2  0  0  0  0
  9 22  1  0  0  0  0
 10 11  1  0  0  0  0
 10 12  1  0  0  0  0
 10 28  1  0  0  0  0
 11 13  1  0  0  0  0
 11 29  1  0  0  0  0
 11 30  1  0  0  0  0
 12 14  1  0  0  0  0
 12 31  1  0  0  0  0
 12 32  1  0  0  0  0
 13 33  1  0  0  0  0
 13 34  1  0  0  0  0
 14 35  1  0  0  0  0
 14 36  1  0  0  0  0
 15 38  1  0  0  0  0
 15 39  1  0  0  0  0
 15 40  1  0  0  0  0
 17 18  1  0  0  0  0
 17 20  1  0  0  0  0
 18 19  2  0  0  0  0
 19 41  1  0  0  0  0
 21 23  2  0  0  0  0
 21 24  1  0  0  0  0
 22 43  1  0  0  0  0
 23 25  1  0  0  0  0
 23 44  1  0  0  0  0
 24 26  2  0  0  0  0
 24 45  1  0  0  0  0
 25 27  2  0  0  0  0
 26 27  1  0  0  0  0
 26 46  1  0  0  0  0
M  END
> <PUBCHEM_COMPOUND_CID>
6918508

> <PUBCHEM_COMPOUND_CANONICALIZED>
1

> <PUBCHEM_CACTVS_COMPLEXITY>
479

> <PUBCHEM_CACTVS_HBOND_ACCEPTOR>
8

> <PUBCHEM_CACTVS_HBOND_DONOR>
2

> <PUBCHEM_CACTVS_ROTATABLE_BOND>
4

> <PUBCHEM_CACTVS_SUBSKEYS>
AAADceB7gQAEAAAAAAAAAAAAAAAAAAAAAAA8WLEAAAAAAACx/AAAHQIQAAAACCrBFiw/8LfIEACgATZnZACCgC0xF6AJ2KA4dpiIaOLB29GUJAhokALIyCcQAAAAAAAAAAIAAAAAAAAABAAAAAAAAAAAAA==

> <PUBCHEM_IUPAC_OPENEYE_NAME>
N4-(3-chloro-4-fluoro-phenyl)-N6-(1-methyl-4-piperidyl)pyrimido[5,4-d]pyrimidine-4,6-diamine

> <PUBCHEM_IUPAC_CAS_NAME>
N4-(3-chloro-4-fluorophenyl)-N6-(1-methyl-4-piperidinyl)pyrimido[5,4-d]pyrimidine-4,6-diamine

> <PUBCHEM_IUPAC_NAME_MARKUP>
4-<I>N</I>-(3-chloro-4-fluorophenyl)-6-<I>N</I>-(1-methylpiperidin-4-yl)pyrimido[5,4-d]pyrimidine-4,6-diamine

> <PUBCHEM_IUPAC_NAME>
4-N-(3-chloro-4-fluorophenyl)-6-N-(1-methylpiperidin-4-yl)pyrimido[5,4-d]pyrimidine-4,6-diamine

> <PUBCHEM_IUPAC_SYSTEMATIC_NAME>
N4-(3-chloranyl-4-fluoranyl-phenyl)-N6-(1-methylpiperidin-4-yl)pyrimido[5,4-d]pyrimidine-4,6-diamine

> <PUBCHEM_IUPAC_TRADITIONAL_NAME>
[4-(3-chloro-4-fluoro-anilino)pyrimido[5,4-d]pyrimidin-6-yl]-(1-methyl-4-piperidyl)amine

> <PUBCHEM_IUPAC_INCHI>
InChI=1S/C18H19ClFN7/c1-27-6-4-11(5-7-27)25-18-21-9-15-16(26-18)17(23-10-22-15)24-12-2-3-14(20)13(19)8-12/h2-3,8-11H,4-7H2,1H3,(H,21,25,26)(H,22,23,24)

> <PUBCHEM_IUPAC_INCHIKEY>
FTFRZXFNZVCRSK-UHFFFAOYSA-N

> <PUBCHEM_XLOGP3_AA>
3.4

> <PUBCHEM_EXACT_MASS>
387.1374495

> <PUBCHEM_MOLECULAR_FORMULA>
C18H19ClFN7

> <PUBCHEM_MOLECULAR_WEIGHT>
387.8

> <PUBCHEM_OPENEYE_CAN_SMILES>
CN1CCC(CC1)NC2=NC=C3C(=N2)C(=NC=N3)NC4=CC(=C(C=C4)F)Cl

> <PUBCHEM_OPENEYE_ISO_SMILES>
CN1CCC(CC1)NC2=NC=C3C(=N2)C(=NC=N3)NC4=CC(=C(C=C4)F)Cl

> <PUBCHEM_CACTVS_TPSA>
78.9

> <PUBCHEM_MONOISOTOPIC_WEIGHT>
387.1374495

> <PUBCHEM_TOTAL_CHARGE>
0

> <PUBCHEM_HEAVY_ATOM_COUNT>
27

> <PUBCHEM_ATOM_DEF_STEREO_COUNT>
0

> <PUBCHEM_ATOM_UDEF_STEREO_COUNT>
0

> <PUBCHEM_BOND_DEF_STEREO_COUNT>
0

> <PUBCHEM_BOND_UDEF_STEREO_COUNT>
0

> <PUBCHEM_ISOTOPIC_ATOM_COUNT>
0

> <PUBCHEM_COMPONENT_COUNT>
1

> <PUBCHEM_CACTVS_TAUTO_COUNT>
-1

> <PUBCHEM_COORDINATE_TYPE>
1
5
255

> <PUBCHEM_BONDANNOTATIONS>
17  18  8
17  20  8
18  19  8
21  23  8
21  24  8
23  25  8
24  26  8
25  27  8
26  27  8
5  16  8
5  17  8
6  16  8
6  19  8
8  18  8
8  22  8
9  20  8
9  22  8

$$$$
9808844
  -OEChem-11282412102D

 45 48  0     0  0  0  0  0  0999 V2000
    2.0000    5.5000    0.0000 Cl  0  0  0  0  0  0  0  0  0  0  0  0
    5.4641   -0.5000    0.0000 O   0  0  0  0  0  0  0  0  0  0  0  0
    7.2764    0.6953    0.0000 O   0  0  0  0  0  0  0  0  0  0  0  0
    7.1962   -3.5000    0.0000 O   0  0  0  0  0  0  0  0  0  0  0  0
    5.4641    3.5000    0.0000 N   0  0  0  0  0  0  0  0  0  0  0  0
    4.5981    2.0000    0.0000 N   0  0  0  0  0  0  0  0  0  0  0  0
    4.5981    1.0000    0.0000 N   0  0  0  0  0  0  0  0  0  0  0  0
    4.5981   -4.0000    0.0000 N   0  0  0  0  0  0  0  0  0  0  0  0
    6.3301   -5.0000    0.0000 N   0  0  0  0  0  0  0  0  0  0  0  0
    6.3301    2.0000    0.0000 C   0  0  0  0  0  0  0  0  0  0  0  0
    6.3301    1.0000    0.0000 C   0  0  0  0  0  0  0  0  0  0  0  0
    5.4641    2.5000    0.0000 C   0  0  0  0  0  0  0  0  0  0  0  0
    5.4641    0.5000    0.0000 C   0  0  0  0  0  0  0  0  0  0  0  0
    4.5981   -1.0000    0.0000 C   0  0  0  0  0  0  0  0  0  0  0  0
    7.2764    2.3047    0.0000 C   0  0  0  0  0  0  0  0  0  0  0  0
    4.5981   -2.0000    0.0000 C   0  0  0  0  0  0  0  0  0  0  0  0
    4.5981    4.0000    0.0000 C   0  0  0  0  0  0  0  0  0  0  0  0
    7.8600    1.5000    0.0000 C   0  0  0  0  0  0  0  0  0  0  0  0
    5.4641   -2.5000    0.0000 C   0  0  0  0  0  0  0  0  0  0  0  0
    3.7320   -2.5000    0.0000 C   0  0  0  0  0  0  0  0  0  0  0  0
    5.4641   -3.5000    0.0000 C   0  0  0  0  0  0  0  0  0  0  0  0
    4.5981    5.0000    0.0000 C   0  0  0  0  0  0  0  0  0  0  0  0
    3.7320    3.5000    0.0000 C   0  0  0  0  0  0  0  0  0  0  0  0
    3.7320   -3.5000    0.0000 C   0  0  0  0  0  0  0  0  0  0  0  0
    3.7320    5.5000    0.0000 C   0  0  0  0  0  0  0  0  0  0  0  0
    2.8660    4.0000    0.0000 C   0  0  0  0  0  0  0  0  0  0  0  0
    2.8660    5.0000    0.0000 C   0  0  0  0  0  0  0  0  0  0  0  0
    6.3301   -4.0000    0.0000 C   0  0  0  0  0  0  0  0  0  0  0  0
    7.1962   -5.5000    0.0000 C   0  0  0  0  0  0  0  0  0  0  0  0
    4.3860   -0.4174    0.0000 H   0  0  0  0  0  0  0  0  0  0  0  0
    3.9875   -1.1077    0.0000 H   0  0  0  0  0  0  0  0  0  0  0  0
    7.4690    2.8940    0.0000 H   0  0  0  0  0  0  0  0  0  0  0  0
    6.0010    3.8100    0.0000 H   0  0  0  0  0  0  0  0  0  0  0  0
    8.4800    1.5000    0.0000 H   0  0  0  0  0  0  0  0  0  0  0  0
    6.0010   -2.1900    0.0000 H   0  0  0  0  0  0  0  0  0  0  0  0
    3.1951   -2.1900    0.0000 H   0  0  0  0  0  0  0  0  0  0  0  0
    5.1350    5.3100    0.0000 H   0  0  0  0  0  0  0  0  0  0  0  0
    3.7320    2.8800    0.0000 H   0  0  0  0  0  0  0  0  0  0  0  0
    3.1951   -3.8100    0.0000 H   0  0  0  0  0  0  0  0  0  0  0  0
    3.7320    6.1200    0.0000 H   0  0  0  0  0  0  0  0  0  0  0  0
    2.3291    3.6900    0.0000 H   0  0  0  0  0  0  0  0  0  0  0  0
    5.7932   -5.3100    0.0000 H   0  0  0  0  0  0  0  0  0  0  0  0
    6.8862   -6.0369    0.0000 H   0  0  0  0  0  0  0  0  0  0  0  0
    7.7331   -5.8100    0.0000 H   0  0  0  0  0  0  0  0  0  0  0  0
    7.5062   -4.9631    0.0000 H   0  0  0  0  0  0  0  0  0  0  0  0
  1 27  1  0  0  0  0
  2 13  1  0  0  0  0
  2 14  1  0  0  0  0
  3 11  1  0  0  0  0
  3 18  1  0  0  0  0
  4 28  2  0  0  0  0
  5 12  1  0  0  0  0
  5 17  1  0  0  0  0
  5 33  1  0  0  0  0
  6  7  1  0  0  0  0
  6 12  2  0  0  0  0
  7 13  2  0  0  0  0
  8 21  2  0  0  0  0
  8 24  1  0  0  0  0
  9 28  1  0  0  0  0
  9 29  1  0  0  0  0
  9 42  1  0  0  0  0
 10 11  2  0  0  0  0
 10 12  1  0  0  0  0
 10 15  1  0  0  0  0
 11 13  1  0  0  0  0
 14 16  1  0  0  0  0
 14 30  1  0  0  0  0
 14 31  1  0  0  0  0
 15 18  2  0  0  0  0
 15 32  1  0  0  0  0
 16 19  2  0  0  0  0
 16 20  1  0  0  0  0
 17 22  2  0  0  0  0
 17 23  1  0  0  0  0
 18 34  1  0  0  0  0
 19 21  1  0  0  0  0
 19 35  1  0  0  0  0
 20 24  2  0  0  0  0
 20 36  1  0  0  0  0
 21 28  1  0  0  0  0
 22 25  1  0  0  0  0
 22 37  1  0  0  0  0
 23 26  2  0  0  0  0
 23 38  1  0  0  0  0
 24 39  1  0  0  0  0
 25 27  2  0  0  0  0
 25 40  1  0  0  0  0
 26 27  1  0  0  0  0
 26 41  1  0  0  0  0
 29 43  1  0  0  0  0
 29 44  1  0  0  0  0
 29 45  1  0  0  0  0
M  END
> <PUBCHEM_COMPOUND_CID>
9808844

> <PUBCHEM_COMPOUND_CANONICALIZED>
1

> <PUBCHEM_CACTVS_COMPLEXITY>
548

> <PUBCHEM_CACTVS_HBOND_ACCEPTOR>
7

> <PUBCHEM_CACTVS_HBOND_DONOR>
2

> <PUBCHEM_CACTVS_ROTATABLE_BOND>
6

> <PUBCHEM_CACTVS_SUBSKEYS>
AAADceB7sAAEAAAAAAAAAAAAAAAAASAAAAA8WIAAAAAAAFgB/gAAHgIYAAAADA7hniY/9tLIFECqA7939AaSjCI3ZyAd2KH/7tiPZvrFv7+fuar22hvK6ee8PQoOAABAAAAAAAAAAIAAAAAAAAAAAAAAAA==

> <PUBCHEM_IUPAC_OPENEYE_NAME>
4-[[4-(4-chloroanilino)furo[2,3-d]pyridazin-7-yl]oxymethyl]-N-methyl-pyridine-2-carboxamide

> <PUBCHEM_IUPAC_CAS_NAME>
4-[[4-(4-chloroanilino)-7-furo[2,3-d]pyridazinyl]oxymethyl]-N-methyl-2-pyridinecarboxamide

> <PUBCHEM_IUPAC_NAME_MARKUP>
4-[[4-(4-chloroanilino)furo[2,3-d]pyridazin-7-yl]oxymethyl]-<I>N</I>-methylpyridine-2-carboxamide

> <PUBCHEM_IUPAC_NAME>
4-[[4-(4-chloroanilino)furo[2,3-d]pyridazin-7-yl]oxymethyl]-N-methylpyridine-2-carboxamide

> <PUBCHEM_IUPAC_SYSTEMATIC_NAME>
4-[[4-[(4-chlorophenyl)amino]furo[2,3-d]pyridazin-7-yl]oxymethyl]-N-methyl-pyridine-2-carboxamide

> <PUBCHEM_IUPAC_TRADITIONAL_NAME>
4-[[4-(4-chloroanilino)furo[2,3-d]pyridazin-7-yl]oxymethyl]-N-methyl-picolinamide

> <PUBCHEM_IUPAC_INCHI>
InChI=1S/C20H16ClN5O3/c1-22-19(27)16-10-12(6-8-23-16)11-29-20-17-15(7-9-28-17)18(25-26-20)24-14-4-2-13(21)3-5-14/h2-10H,11H2,1H3,(H,22,27)(H,24,25)

> <PUBCHEM_IUPAC_INCHIKEY>
QFCXANHHBCGMAS-UHFFFAOYSA-N

> <PUBCHEM_XLOGP3_AA>
3.1

> <PUBCHEM_EXACT_MASS>
409.0941671

> <PUBCHEM_MOLECULAR_FORMULA>
C20H16ClN5O3

> <PUBCHEM_MOLECULAR_WEIGHT>
409.8

> <PUBCHEM_OPENEYE_CAN_SMILES>
CNC(=O)C1=NC=CC(=C1)COC2=NN=C(C3=C2OC=C3)NC4=CC=C(C=C4)Cl

> <PUBCHEM_OPENEYE_ISO_SMILES>
CNC(=O)C1=NC=CC(=C1)COC2=NN=C(C3=C2OC=C3)NC4=CC=C(C=C4)Cl

> <PUBCHEM_CACTVS_TPSA>
102

> <PUBCHEM_MONOISOTOPIC_WEIGHT>
409.0941671

> <PUBCHEM_TOTAL_CHARGE>
0

> <PUBCHEM_HEAVY_ATOM_COUNT>
29

> <PUBCHEM_ATOM_DEF_STEREO_COUNT>
0

> <PUBCHEM_ATOM_UDEF_STEREO_COUNT>
0

> <PUBCHEM_BOND_DEF_STEREO_COUNT>
0

> <PUBCHEM_BOND_UDEF_STEREO_COUNT>
0

> <PUBCHEM_ISOTOPIC_ATOM_COUNT>
0

> <PUBCHEM_COMPONENT_COUNT>
1

> <PUBCHEM_CACTVS_TAUTO_COUNT>
4

> <PUBCHEM_COORDINATE_TYPE>
1
5
255

> <PUBCHEM_BONDANNOTATIONS>
10  11  8
10  12  8
10  15  8
11  13  8
15  18  8
16  19  8
16  20  8
17  22  8
17  23  8
19  21  8
20  24  8
22  25  8
23  26  8
25  27  8
26  27  8
3  11  8
3  18  8
6  12  8
6  7  8
7  13  8
8  21  8
8  24  8

$$$$
16041424
  -OEChem-11282412102D

 53 56  0     0  0  0  0  0  0999 V2000
    4.8198    1.6739    0.0000 N   0  0  0  0  0  0  0  0  0  0  0  0
    4.8198    3.6739    0.0000 N   0  0  0  0  0  0  0  0  0  0  0  0
    5.6859    0.1739    0.0000 N   0  0  0  0  0  0  0  0  0  0  0  0
    4.8198   -1.3261    0.0000 N   0  0  0  0  0  0  0  0  0  0  0  0
    3.0878   -1.3261    0.0000 N   0  0  0  0  0  0  0  0  0  0  0  0
    3.8968   -2.9139    0.0000 N   0  0  0  0  0  0  0  0  0  0  0  0
    3.5878   -3.8649    0.0000 N   0  0  0  0  0  0  0  0  0  0  0  0
    3.9538    2.1739    0.0000 C   0  0  0  0  0  0  0  0  0  0  0  0
    5.6859    2.1739    0.0000 C   0  0  0  0  0  0  0  0  0  0  0  0
    3.9538    3.1739    0.0000 C   0  0  0  0  0  0  0  0  0  0  0  0
    5.6859    3.1739    0.0000 C   0  0  0  0  0  0  0  0  0  0  0  0
    4.8198    0.6739    0.0000 C   0  0  0  0  0  0  0  0  0  0  0  0
    4.8198    4.6739    0.0000 C   0  0  0  0  0  0  0  0  0  0  0  0
    3.9538    0.1739    0.0000 C   0  0  0  0  0  0  0  0  0  0  0  0
    3.9538   -0.8261    0.0000 C   0  0  0  0  0  0  0  0  0  0  0  0
    5.6859   -0.8261    0.0000 C   0  0  0  0  0  0  0  0  0  0  0  0
    6.5519   -1.3261    0.0000 C   0  0  0  0  0  0  0  0  0  0  0  0
    3.0878   -2.3261    0.0000 C   0  0  0  0  0  0  0  0  0  0  0  0
    2.2788   -2.9139    0.0000 C   0  0  0  0  0  0  0  0  0  0  0  0
    7.4179   -0.8261    0.0000 C   0  0  0  0  0  0  0  0  0  0  0  0
    2.5878   -3.8649    0.0000 C   0  0  0  0  0  0  0  0  0  0  0  0
    8.2839   -1.3261    0.0000 C   0  0  0  0  0  0  0  0  0  0  0  0
    2.0000   -4.6739    0.0000 C   0  0  0  0  0  0  0  0  0  0  0  0
    9.1500   -0.8261    0.0000 C   0  0  0  0  0  0  0  0  0  0  0  0
    8.2839   -2.3261    0.0000 C   0  0  0  0  0  0  0  0  0  0  0  0
   10.0160   -1.3261    0.0000 C   0  0  0  0  0  0  0  0  0  0  0  0
    9.1500   -2.8261    0.0000 C   0  0  0  0  0  0  0  0  0  0  0  0
   10.0160   -2.3261    0.0000 C   0  0  0  0  0  0  0  0  0  0  0  0
    3.3432    2.2816    0.0000 H   0  0  0  0  0  0  0  0  0  0  0  0
    3.7418    1.5913    0.0000 H   0  0  0  0  0  0  0  0  0  0  0  0
    5.8979    1.5913    0.0000 H   0  0  0  0  0  0  0  0  0  0  0  0
    6.2964    2.2816    0.0000 H   0  0  0  0  0  0  0  0  0  0  0  0
    3.7418    3.7565    0.0000 H   0  0  0  0  0  0  0  0  0  0  0  0
    3.3432    3.0663    0.0000 H   0  0  0  0  0  0  0  0  0  0  0  0
    6.2964    3.0663    0.0000 H   0  0  0  0  0  0  0  0  0  0  0  0
    5.8979    3.7565    0.0000 H   0  0  0  0  0  0  0  0  0  0  0  0
    5.4398    4.6739    0.0000 H   0  0  0  0  0  0  0  0  0  0  0  0
    4.8198    5.2939    0.0000 H   0  0  0  0  0  0  0  0  0  0  0  0
    4.1998    4.6739    0.0000 H   0  0  0  0  0  0  0  0  0  0  0  0
    3.4169    0.4839    0.0000 H   0  0  0  0  0  0  0  0  0  0  0  0
    2.5508   -1.0161    0.0000 H   0  0  0  0  0  0  0  0  0  0  0  0
    6.5519   -1.9461    0.0000 H   0  0  0  0  0  0  0  0  0  0  0  0
    1.6891   -2.7223    0.0000 H   0  0  0  0  0  0  0  0  0  0  0  0
    7.4179   -0.2061    0.0000 H   0  0  0  0  0  0  0  0  0  0  0  0
    3.9522   -4.3665    0.0000 H   0  0  0  0  0  0  0  0  0  0  0  0
    1.4984   -4.3095    0.0000 H   0  0  0  0  0  0  0  0  0  0  0  0
    1.6356   -5.1755    0.0000 H   0  0  0  0  0  0  0  0  0  0  0  0
    2.5016   -5.0384    0.0000 H   0  0  0  0  0  0  0  0  0  0  0  0
    9.1500   -0.2061    0.0000 H   0  0  0  0  0  0  0  0  0  0  0  0
    7.7470   -2.6361    0.0000 H   0  0  0  0  0  0  0  0  0  0  0  0
   10.5529   -1.0161    0.0000 H   0  0  0  0  0  0  0  0  0  0  0  0
    9.1500   -3.4461    0.0000 H   0  0  0  0  0  0  0  0  0  0  0  0
   10.5529   -2.6361    0.0000 H   0  0  0  0  0  0  0  0  0  0  0  0
  1  8  1  0  0  0  0
  1  9  1  0  0  0  0
  1 12  1  0  0  0  0
  2 10  1  0  0  0  0
  2 11  1  0  0  0  0
  2 13  1  0  0  0  0
  3 12  2  0  0  0  0
  3 16  1  0  0  0  0
  4 15  1  0  0  0  0
  4 16  2  0  0  0  0
  5 15  1  0  0  0  0
  5 18  1  0  0  0  0
  5 41  1  0  0  0  0
  6  7  1  0  0  0  0
  6 18  2  0  0  0  0
  7 21  1  0  0  0  0
  7 45  1  0  0  0  0
  8 10  1  0  0  0  0
  8 29  1  0  0  0  0
  8 30  1  0  0  0  0
  9 11  1  0  0  0  0
  9 31  1  0  0  0  0
  9 32  1  0  0  0  0
 10 33  1  0  0  0  0
 10 34  1  0  0  0  0
 11 35  1  0  0  0  0
 11 36  1  0  0  0  0
 12 14  1  0  0  0  0
 13 37  1  0  0  0  0
 13 38  1  0  0  0  0
 13 39  1  0  0  0  0
 14 15  2  0  0  0  0
 14 40  1  0  0  0  0
 16 17  1  0  0  0  0
 17 20  2  0  0  0  0
 17 42  1  0  0  0  0
 18 19  1  0  0  0  0
 19 21  2  0  0  0  0
 19 43  1  0  0  0  0
 20 22  1  0  0  0  0
 20 44  1  0  0  0  0
 21 23  1  0  0  0  0
 22 24  2  0  0  0  0
 22 25  1  0  0  0  0
 23 46  1  0  0  0  0
 23 47  1  0  0  0  0
 23 48  1  0  0  0  0
 24 26  1  0  0  0  0
 24 49  1  0  0  0  0
 25 27  2  0  0  0  0
 25 50  1  0  0  0  0
 26 28  2  0  0  0  0
 26 51  1  0  0  0  0
 27 28  1  0  0  0  0
 27 52  1  0  0  0  0
 28 53  1  0  0  0  0
M  END
> <PUBCHEM_COMPOUND_CID>
16041424

> <PUBCHEM_COMPOUND_CANONICALIZED>
1

> <PUBCHEM_CACTVS_COMPLEXITY>
499

> <PUBCHEM_CACTVS_HBOND_ACCEPTOR>
6

> <PUBCHEM_CACTVS_HBOND_DONOR>
2

> <PUBCHEM_CACTVS_ROTATABLE_BOND>
5

> <PUBCHEM_CACTVS_SUBSKEYS>
AAADceB7gAAAAAAAAAAAAAAAAAAAAWAAAAA8WIAAAAAAAAAB8AAAHAAYAAAADAjBHwQzsJfrEACiAyZiZACShCshAqAduSA4ZJiIaGLA2dCUpAh4mALIyCcAgAAOAAAAAAAAAAAAAAAAAAAAAAAAAAAAAA==

> <PUBCHEM_IUPAC_OPENEYE_NAME>
6-(4-methylpiperazin-1-yl)-N-(5-methyl-1H-pyrazol-3-yl)-2-[(E)-styryl]pyrimidin-4-amine

> <PUBCHEM_IUPAC_CAS_NAME>
6-(4-methyl-1-piperazinyl)-N-(5-methyl-1H-pyrazol-3-yl)-2-[(E)-2-phenylethenyl]-4-pyrimidinamine

> <PUBCHEM_IUPAC_NAME_MARKUP>
6-(4-methylpiperazin-1-yl)-<I>N</I>-(5-methyl-1<I>H</I>-pyrazol-3-yl)-2-[(<I>E</I>)-2-phenylethenyl]pyrimidin-4-amine

> <PUBCHEM_IUPAC_NAME>
6-(4-methylpiperazin-1-yl)-N-(5-methyl-1H-pyrazol-3-yl)-2-[(E)-2-phenylethenyl]pyrimidin-4-amine

> <PUBCHEM_IUPAC_SYSTEMATIC_NAME>
6-(4-methylpiperazin-1-yl)-N-(5-methyl-1H-pyrazol-3-yl)-2-[(E)-2-phenylethenyl]pyrimidin-4-amine

> <PUBCHEM_IUPAC_TRADITIONAL_NAME>
[6-(4-methylpiperazino)-2-[(E)-styryl]pyrimidin-4-yl]-(5-methyl-1H-pyrazol-3-yl)amine

> <PUBCHEM_IUPAC_INCHI>
InChI=1S/C21H25N7/c1-16-14-20(26-25-16)23-19-15-21(28-12-10-27(2)11-13-28)24-18(22-19)9-8-17-6-4-3-5-7-17/h3-9,14-15H,10-13H2,1-2H3,(H2,22,23,24,25,26)/b9-8+

> <PUBCHEM_IUPAC_INCHIKEY>
BLQYVHBZHAISJM-CMDGGOBGSA-N

> <PUBCHEM_XLOGP3_AA>
3.7

> <PUBCHEM_EXACT_MASS>
375.21714383

> <PUBCHEM_MOLECULAR_FORMULA>
C21H25N7

> <PUBCHEM_MOLECULAR_WEIGHT>
375.5

> <PUBCHEM_OPENEYE_CAN_SMILES>
CC1=CC(=NN1)NC2=CC(=NC(=N2)C=CC3=CC=CC=C3)N4CCN(CC4)C

> <PUBCHEM_OPENEYE_ISO_SMILES>
CC1=CC(=NN1)NC2=CC(=NC(=N2)/C=C/C3=CC=CC=C3)N4CCN(CC4)C

> <PUBCHEM_CACTVS_TPSA>
73

> <PUBCHEM_MONOISOTOPIC_WEIGHT>
375.21714383

> <PUBCHEM_TOTAL_CHARGE>
0

> <PUBCHEM_HEAVY_ATOM_COUNT>
28

> <PUBCHEM_ATOM_DEF_STEREO_COUNT>
0

> <PUBCHEM_ATOM_UDEF_STEREO_COUNT>
0

> <PUBCHEM_BOND_DEF_STEREO_COUNT>
1

> <PUBCHEM_BOND_UDEF_STEREO_COUNT>
0

> <PUBCHEM_ISOTOPIC_ATOM_COUNT>
0

> <PUBCHEM_COMPONENT_COUNT>
1

> <PUBCHEM_CACTVS_TAUTO_COUNT>
-1

> <PUBCHEM_COORDINATE_TYPE>
1
5
255

> <PUBCHEM_BONDANNOTATIONS>
12  14  8
14  15  8
18  19  8
19  21  8
22  24  8
22  25  8
24  26  8
25  27  8
26  28  8
27  28  8
3  12  8
3  16  8
4  15  8
4  16  8
6  18  8
6  7  8
7  21  8

$$$$
6419747
  -OEChem-11282412102D

 40 43  0     0  0  0  0  0  0999 V2000
    3.4030   -0.5986    0.0000 S   0  0  0  0  0  0  0  0  0  0  0  0
    8.5309   -1.5986    0.0000 O   0  0  0  0  0  0  0  0  0  0  0  0
    2.9030   -1.4646    0.0000 O   0  0  0  0  0  0  0  0  0  0  0  0
    3.9030    0.2675    0.0000 O   0  0  0  0  0  0  0  0  0  0  0  0
    9.8365    0.1891    0.0000 N   0  0  0  0  0  0  0  0  0  0  0  0
    6.9473   -2.4033    0.0000 N   0  0  0  0  0  0  0  0  0  0  0  0
    2.5369   -0.0986    0.0000 N   0  0  0  0  0  0  0  0  0  0  0  0
    6.0010   -1.0986    0.0000 C   0  0  0  0  0  0  0  0  0  0  0  0
    6.9473   -0.7938    0.0000 C   0  0  0  0  0  0  0  0  0  0  0  0
    8.2364    0.3629    0.0000 C   0  0  0  0  0  0  0  0  0  0  0  0
    8.6415    1.2707    0.0000 C   0  0  0  0  0  0  0  0  0  0  0  0
    9.6357    1.1627    0.0000 C   0  0  0  0  0  0  0  0  0  0  0  0
    6.0010   -2.0986    0.0000 C   0  0  0  0  0  0  0  0  0  0  0  0
    7.2579    0.1567    0.0000 C   0  0  0  0  0  0  0  0  0  0  0  0
    8.9734   -0.3042    0.0000 C   0  0  0  0  0  0  0  0  0  0  0  0
    5.1350   -0.5986    0.0000 C   0  0  0  0  0  0  0  0  0  0  0  0
    7.5309   -1.5986    0.0000 C   0  0  0  0  0  0  0  0  0  0  0  0
    4.2690   -1.0986    0.0000 C   0  0  0  0  0  0  0  0  0  0  0  0
    5.1350   -2.5986    0.0000 C   0  0  0  0  0  0  0  0  0  0  0  0
    8.2380    2.1856    0.0000 C   0  0  0  0  0  0  0  0  0  0  0  0
    4.2690   -2.0986    0.0000 C   0  0  0  0  0  0  0  0  0  0  0  0
   10.2263    1.9697    0.0000 C   0  0  0  0  0  0  0  0  0  0  0  0
   10.7479   -0.2223    0.0000 C   0  0  0  0  0  0  0  0  0  0  0  0
    8.8286    2.9926    0.0000 C   0  0  0  0  0  0  0  0  0  0  0  0
    9.8227    2.8846    0.0000 C   0  0  0  0  0  0  0  0  0  0  0  0
    6.8439    0.6182    0.0000 H   0  0  0  0  0  0  0  0  0  0  0  0
    8.9065   -0.9206    0.0000 H   0  0  0  0  0  0  0  0  0  0  0  0
    5.1350    0.0214    0.0000 H   0  0  0  0  0  0  0  0  0  0  0  0
    7.1399   -2.9926    0.0000 H   0  0  0  0  0  0  0  0  0  0  0  0
    5.1350   -3.2186    0.0000 H   0  0  0  0  0  0  0  0  0  0  0  0
    7.6216    2.2526    0.0000 H   0  0  0  0  0  0  0  0  0  0  0  0
    3.7320   -2.4086    0.0000 H   0  0  0  0  0  0  0  0  0  0  0  0
   10.8427    1.9028    0.0000 H   0  0  0  0  0  0  0  0  0  0  0  0
   10.4928   -0.7874    0.0000 H   0  0  0  0  0  0  0  0  0  0  0  0
   11.3130   -0.4775    0.0000 H   0  0  0  0  0  0  0  0  0  0  0  0
   11.0030    0.3427    0.0000 H   0  0  0  0  0  0  0  0  0  0  0  0
    8.5783    3.5599    0.0000 H   0  0  0  0  0  0  0  0  0  0  0  0
   10.1889    3.3850    0.0000 H   0  0  0  0  0  0  0  0  0  0  0  0
    2.0000   -0.4086    0.0000 H   0  0  0  0  0  0  0  0  0  0  0  0
    2.5369    0.5214    0.0000 H   0  0  0  0  0  0  0  0  0  0  0  0
  1  3  2  0  0  0  0
  1  4  2  0  0  0  0
  1  7  1  0  0  0  0
  1 18  1  0  0  0  0
  2 17  2  0  0  0  0
  5 12  1  0  0  0  0
  5 15  1  0  0  0  0
  5 23  1  0  0  0  0
  6 13  1  0  0  0  0
  6 17  1  0  0  0  0
  6 29  1  0  0  0  0
  7 39  1  0  0  0  0
  7 40  1  0  0  0  0
  8  9  1  0  0  0  0
  8 13  2  0  0  0  0
  8 16  1  0  0  0  0
  9 14  2  0  0  0  0
  9 17  1  0  0  0  0
 10 11  1  0  0  0  0
 10 14  1  0  0  0  0
 10 15  2  0  0  0  0
 11 12  1  0  0  0  0
 11 20  2  0  0  0  0
 12 22  2  0  0  0  0
 13 19  1  0  0  0  0
 14 26  1  0  0  0  0
 15 27  1  0  0  0  0
 16 18  2  0  0  0  0
 16 28  1  0  0  0  0
 18 21  1  0  0  0  0
 19 21  2  0  0  0  0
 19 30  1  0  0  0  0
 20 24  1  0  0  0  0
 20 31  1  0  0  0  0
 21 32  1  0  0  0  0
 22 25  1  0  0  0  0
 22 33  1  0  0  0  0
 23 34  1  0  0  0  0
 23 35  1  0  0  0  0
 23 36  1  0  0  0  0
 24 25  2  0  0  0  0
 24 37  1  0  0  0  0
 25 38  1  0  0  0  0
M  END
> <PUBCHEM_COMPOUND_CID>
6419747

> <PUBCHEM_COMPOUND_CANONICALIZED>
1

> <PUBCHEM_CACTVS_COMPLEXITY>
684

> <PUBCHEM_CACTVS_HBOND_ACCEPTOR>
4

> <PUBCHEM_CACTVS_HBOND_DONOR>
2

> <PUBCHEM_CACTVS_ROTATABLE_BOND>
2

> <PUBCHEM_CACTVS_SUBSKEYS>
AAADccB7MABAAAAAAAAAAAAAAAAAAWLAAAAwYAAAAAAAAFgB9AAAHgQQQAAADAjB3gQ+wfPMEAKoAzV3VHDCgDAxAiAI2Dk4ZNgIIPLAlZGEIAhglADIyYcciMCOgAQAgAACAAAACAEAAAQAAAAAAAAAAA==

> <PUBCHEM_IUPAC_OPENEYE_NAME>
(3Z)-3-[(1-methylindol-3-yl)methylene]-2-oxo-indoline-5-sulfonamide

> <PUBCHEM_IUPAC_CAS_NAME>
(3Z)-3-[(1-methyl-3-indolyl)methylidene]-2-oxo-1H-indole-5-sulfonamide

> <PUBCHEM_IUPAC_NAME_MARKUP>
(3<I>Z</I>)-3-[(1-methylindol-3-yl)methylidene]-2-oxo-1<I>H</I>-indole-5-sulfonamide

> <PUBCHEM_IUPAC_NAME>
(3Z)-3-[(1-methylindol-3-yl)methylidene]-2-oxo-1H-indole-5-sulfonamide

> <PUBCHEM_IUPAC_SYSTEMATIC_NAME>
(3Z)-3-[(1-methylindol-3-yl)methylidene]-2-oxidanylidene-1H-indole-5-sulfonamide

> <PUBCHEM_IUPAC_TRADITIONAL_NAME>
(3Z)-2-keto-3-[(1-methylindol-3-yl)methylene]indoline-5-sulfonamide

> <PUBCHEM_IUPAC_INCHI>
InChI=1S/C18H15N3O3S/c1-21-10-11(13-4-2-3-5-17(13)21)8-15-14-9-12(25(19,23)24)6-7-16(14)20-18(15)22/h2-10H,1H3,(H,20,22)(H2,19,23,24)/b15-8-

> <PUBCHEM_IUPAC_INCHIKEY>
MLKHXLFEYOOYEY-NVNXTCNLSA-N

> <PUBCHEM_XLOGP3_AA>
1.5

> <PUBCHEM_EXACT_MASS>
353.08341252

> <PUBCHEM_MOLECULAR_FORMULA>
C18H15N3O3S

> <PUBCHEM_MOLECULAR_WEIGHT>
353.4

> <PUBCHEM_OPENEYE_CAN_SMILES>
CN1C=C(C2=CC=CC=C21)C=C3C4=C(C=CC(=C4)S(=O)(=O)N)NC3=O

> <PUBCHEM_OPENEYE_ISO_SMILES>
CN1C=C(C2=CC=CC=C21)/C=C\3/C4=C(C=CC(=C4)S(=O)(=O)N)NC3=O

> <PUBCHEM_CACTVS_TPSA>
103

> <PUBCHEM_MONOISOTOPIC_WEIGHT>
353.08341252

> <PUBCHEM_TOTAL_CHARGE>
0

> <PUBCHEM_HEAVY_ATOM_COUNT>
25

> <PUBCHEM_ATOM_DEF_STEREO_COUNT>
0

> <PUBCHEM_ATOM_UDEF_STEREO_COUNT>
0

> <PUBCHEM_BOND_DEF_STEREO_COUNT>
1

> <PUBCHEM_BOND_UDEF_STEREO_COUNT>
0

> <PUBCHEM_ISOTOPIC_ATOM_COUNT>
0

> <PUBCHEM_COMPONENT_COUNT>
1

> <PUBCHEM_CACTVS_TAUTO_COUNT>
-1

> <PUBCHEM_COORDINATE_TYPE>
1
5
255

> <PUBCHEM_BONDANNOTATIONS>
10  11  8
10  15  8
11  12  8
11  20  8
12  22  8
13  19  8
16  18  8
18  21  8
19  21  8
20  24  8
22  25  8
24  25  8
5  12  8
5  15  8
8  13  8
8  16  8

$$$$
11601743
  -OEChem-11282412102D

 34 37  0     0  0  0  0  0  0999 V2000
    8.1648   -2.4494    0.0000 O   0  0  0  0  0  0  0  0  0  0  0  0
   11.0948    2.3575    0.0000 O   0  0  0  0  0  0  0  0  0  0  0  0
    2.5369   -0.5834    0.0000 O   0  0  0  0  0  0  0  0  0  0  0  0
    7.7597    0.1904    0.0000 N   0  0  0  0  0  0  0  0  0  0  0  0
    6.0812   -2.3882    0.0000 N   0  0  0  0  0  0  0  0  0  0  0  0
    8.1648   -0.7174    0.0000 C   0  0  0  0  0  0  0  0  0  0  0  0
    6.6648   -1.5834    0.0000 C   0  0  0  0  0  0  0  0  0  0  0  0
    9.3628    0.3575    0.0000 C   0  0  0  0  0  0  0  0  0  0  0  0
    5.1350   -1.0834    0.0000 C   0  0  0  0  0  0  0  0  0  0  0  0
    8.4967    0.8575    0.0000 C   0  0  0  0  0  0  0  0  0  0  0  0
    5.1350   -2.0834    0.0000 C   0  0  0  0  0  0  0  0  0  0  0  0
    7.6648   -1.5834    0.0000 C   0  0  0  0  0  0  0  0  0  0  0  0
    9.1536   -0.6143    0.0000 C   0  0  0  0  0  0  0  0  0  0  0  0
    6.0812   -0.7787    0.0000 C   0  0  0  0  0  0  0  0  0  0  0  0
   10.2288    0.8575    0.0000 C   0  0  0  0  0  0  0  0  0  0  0  0
    4.2690   -0.5834    0.0000 C   0  0  0  0  0  0  0  0  0  0  0  0
    8.4967    1.8575    0.0000 C   0  0  0  0  0  0  0  0  0  0  0  0
    4.2690   -2.5834    0.0000 C   0  0  0  0  0  0  0  0  0  0  0  0
   10.2288    1.8575    0.0000 C   0  0  0  0  0  0  0  0  0  0  0  0
    3.4030   -1.0834    0.0000 C   0  0  0  0  0  0  0  0  0  0  0  0
    9.3628    2.3575    0.0000 C   0  0  0  0  0  0  0  0  0  0  0  0
    3.4030   -2.0834    0.0000 C   0  0  0  0  0  0  0  0  0  0  0  0
    9.5676   -1.0758    0.0000 H   0  0  0  0  0  0  0  0  0  0  0  0
    6.2738   -0.1894    0.0000 H   0  0  0  0  0  0  0  0  0  0  0  0
    7.1530    0.3182    0.0000 H   0  0  0  0  0  0  0  0  0  0  0  0
    6.2738   -2.9775    0.0000 H   0  0  0  0  0  0  0  0  0  0  0  0
   10.7657    0.5475    0.0000 H   0  0  0  0  0  0  0  0  0  0  0  0
    4.2690    0.0366    0.0000 H   0  0  0  0  0  0  0  0  0  0  0  0
    7.9598    2.1675    0.0000 H   0  0  0  0  0  0  0  0  0  0  0  0
    4.2690   -3.2034    0.0000 H   0  0  0  0  0  0  0  0  0  0  0  0
    9.3628    2.9775    0.0000 H   0  0  0  0  0  0  0  0  0  0  0  0
    2.8660   -2.3934    0.0000 H   0  0  0  0  0  0  0  0  0  0  0  0
   11.0948    2.9775    0.0000 H   0  0  0  0  0  0  0  0  0  0  0  0
    2.0000   -0.8934    0.0000 H   0  0  0  0  0  0  0  0  0  0  0  0
  1 12  2  0  0  0  0
  2 19  1  0  0  0  0
  2 33  1  0  0  0  0
  3 20  1  0  0  0  0
  3 34  1  0  0  0  0
  4  6  1  0  0  0  0
  4 10  1  0  0  0  0
  4 25  1  0  0  0  0
  5  7  1  0  0  0  0
  5 11  1  0  0  0  0
  5 26  1  0  0  0  0
  6 12  1  0  0  0  0
  6 13  2  0  0  0  0
  7 12  1  0  0  0  0
  7 14  2  0  0  0  0
  8 10  2  0  0  0  0
  8 13  1  0  0  0  0
  8 15  1  0  0  0  0
  9 11  2  0  0  0  0
  9 14  1  0  0  0  0
  9 16  1  0  0  0  0
 10 17  1  0  0  0  0
 11 18  1  0  0  0  0
 13 23  1  0  0  0  0
 14 24  1  0  0  0  0
 15 19  2  0  0  0  0
 15 27  1  0  0  0  0
 16 20  2  0  0  0  0
 16 28  1  0  0  0  0
 17 21  2  0  0  0  0
 17 29  1  0  0  0  0
 18 22  2  0  0  0  0
 18 30  1  0  0  0  0
 19 21  1  0  0  0  0
 20 22  1  0  0  0  0
 21 31  1  0  0  0  0
 22 32  1  0  0  0  0
M  END
> <PUBCHEM_COMPOUND_CID>
11601743

> <PUBCHEM_COMPOUND_CANONICALIZED>
1

> <PUBCHEM_CACTVS_COMPLEXITY>
406

> <PUBCHEM_CACTVS_HBOND_ACCEPTOR>
3

> <PUBCHEM_CACTVS_HBOND_DONOR>
4

> <PUBCHEM_CACTVS_ROTATABLE_BOND>
2

> <PUBCHEM_CACTVS_SUBSKEYS>
AAADccB7MAAAAAAAAAAAAAAAAAAAAWLAAAAwYAAAAAAAAFgB/gAAHgAQCAAADAyBngAwxvLJkgCoA6RyRACCgCAnIiAImSG2bNgIJvLC1bOEcQhk0BHI2Ye42fOeAEABAAACAAAAgAIAAAQAAAAAAAAAAA==

> <PUBCHEM_IUPAC_OPENEYE_NAME>
bis(5-hydroxy-1H-indol-2-yl)methanone

> <PUBCHEM_IUPAC_CAS_NAME>
bis(5-hydroxy-1H-indol-2-yl)methanone

> <PUBCHEM_IUPAC_NAME_MARKUP>
bis(5-hydroxy-1<I>H</I>-indol-2-yl)methanone

> <PUBCHEM_IUPAC_NAME>
bis(5-hydroxy-1H-indol-2-yl)methanone

> <PUBCHEM_IUPAC_SYSTEMATIC_NAME>
bis(5-oxidanyl-1H-indol-2-yl)methanone

> <PUBCHEM_IUPAC_TRADITIONAL_NAME>
bis(5-hydroxy-1H-indol-2-yl)methanone

> <PUBCHEM_IUPAC_INCHI>
InChI=1S/C17H12N2O3/c20-11-1-3-13-9(5-11)7-15(18-13)17(22)16-8-10-6-12(21)2-4-14(10)19-16/h1-8,18-21H

> <PUBCHEM_IUPAC_INCHIKEY>
NIMIWWQLOGNYHD-UHFFFAOYSA-N

> <PUBCHEM_XLOGP3_AA>
3.5

> <PUBCHEM_EXACT_MASS>
292.08479225

> <PUBCHEM_MOLECULAR_FORMULA>
C17H12N2O3

> <PUBCHEM_MOLECULAR_WEIGHT>
292.29

> <PUBCHEM_OPENEYE_CAN_SMILES>
C1=CC2=C(C=C1O)C=C(N2)C(=O)C3=CC4=C(N3)C=CC(=C4)O

> <PUBCHEM_OPENEYE_ISO_SMILES>
C1=CC2=C(C=C1O)C=C(N2)C(=O)C3=CC4=C(N3)C=CC(=C4)O

> <PUBCHEM_CACTVS_TPSA>
89.1

> <PUBCHEM_MONOISOTOPIC_WEIGHT>
292.08479225

> <PUBCHEM_TOTAL_CHARGE>
0

> <PUBCHEM_HEAVY_ATOM_COUNT>
22

> <PUBCHEM_ATOM_DEF_STEREO_COUNT>
0

> <PUBCHEM_ATOM_UDEF_STEREO_COUNT>
0

> <PUBCHEM_BOND_DEF_STEREO_COUNT>
0

> <PUBCHEM_BOND_UDEF_STEREO_COUNT>
0

> <PUBCHEM_ISOTOPIC_ATOM_COUNT>
0

> <PUBCHEM_COMPONENT_COUNT>
1

> <PUBCHEM_CACTVS_TAUTO_COUNT>
-1

> <PUBCHEM_COORDINATE_TYPE>
1
5
255

> <PUBCHEM_BONDANNOTATIONS>
10  17  8
11  18  8
15  19  8
16  20  8
17  21  8
18  22  8
19  21  8
20  22  8
4  10  8
4  6  8
5  11  8
5  7  8
6  13  8
7  14  8
8  10  8
8  13  8
8  15  8
9  11  8
9  14  8
9  16  8

$$$$
9549296
  -OEChem-11282412102D

 39 40  0     0  0  0  0  0  0999 V2000
    8.0991    1.0390    0.0000 F   0  0  0  0  0  0  0  0  0  0  0  0
    9.4651    1.4050    0.0000 F   0  0  0  0  0  0  0  0  0  0  0  0
    9.0991    2.7710    0.0000 F   0  0  0  0  0  0  0  0  0  0  0  0
    3.4030    1.9050    0.0000 O   0  0  0  0  0  0  0  0  0  0  0  0
    5.1350    1.9050    0.0000 N   0  0  0  0  0  0  0  0  0  0  0  0
    6.8671   -1.0950    0.0000 N   0  0  0  0  0  0  0  0  0  0  0  0
    6.0010    0.4050    0.0000 N   0  0  0  0  0  0  0  0  0  0  0  0
    5.1350   -1.0950    0.0000 N   0  0  0  0  0  0  0  0  0  0  0  0
    7.7331   -3.5950    0.0000 N   0  0  0  0  0  0  0  0  0  0  0  0
    2.5369    0.4050    0.0000 N   0  0  0  0  0  0  0  0  0  0  0  0
    6.0010    2.4050    0.0000 C   0  0  0  0  0  0  0  0  0  0  0  0
    5.1350    0.9050    0.0000 C   0  0  0  0  0  0  0  0  0  0  0  0
    7.7331    2.4050    0.0000 C   0  0  0  0  0  0  0  0  0  0  0  0
    6.8671   -2.0950    0.0000 C   0  0  0  0  0  0  0  0  0  0  0  0
    6.8671    1.9050    0.0000 C   0  0  0  0  0  0  0  0  0  0  0  0
    4.2690    0.4050    0.0000 C   0  0  0  0  0  0  0  0  0  0  0  0
    6.0010   -0.5950    0.0000 C   0  0  0  0  0  0  0  0  0  0  0  0
    6.0010    3.4050    0.0000 C   0  0  0  0  0  0  0  0  0  0  0  0
    7.7331   -2.5950    0.0000 C   0  0  0  0  0  0  0  0  0  0  0  0
    7.7331    3.4050    0.0000 C   0  0  0  0  0  0  0  0  0  0  0  0
    6.8671    3.9050    0.0000 C   0  0  0  0  0  0  0  0  0  0  0  0
    4.2690   -0.5950    0.0000 C   0  0  0  0  0  0  0  0  0  0  0  0
    8.5991    1.9050    0.0000 C   0  0  0  0  0  0  0  0  0  0  0  0
    3.4030    0.9050    0.0000 C   0  0  0  0  0  0  0  0  0  0  0  0
    4.5981    2.2150    0.0000 H   0  0  0  0  0  0  0  0  0  0  0  0
    6.2565   -1.9873    0.0000 H   0  0  0  0  0  0  0  0  0  0  0  0
    6.6550   -2.6776    0.0000 H   0  0  0  0  0  0  0  0  0  0  0  0
    6.8671    1.2850    0.0000 H   0  0  0  0  0  0  0  0  0  0  0  0
    5.4641    3.7150    0.0000 H   0  0  0  0  0  0  0  0  0  0  0  0
    7.4040   -0.7850    0.0000 H   0  0  0  0  0  0  0  0  0  0  0  0
    8.3437   -2.7027    0.0000 H   0  0  0  0  0  0  0  0  0  0  0  0
    7.9451   -2.0124    0.0000 H   0  0  0  0  0  0  0  0  0  0  0  0
    8.2700    3.7150    0.0000 H   0  0  0  0  0  0  0  0  0  0  0  0
    6.8671    4.5250    0.0000 H   0  0  0  0  0  0  0  0  0  0  0  0
    3.7320   -0.9050    0.0000 H   0  0  0  0  0  0  0  0  0  0  0  0
    8.2700   -3.9050    0.0000 H   0  0  0  0  0  0  0  0  0  0  0  0
    7.1962   -3.9050    0.0000 H   0  0  0  0  0  0  0  0  0  0  0  0
    2.0000    0.7150    0.0000 H   0  0  0  0  0  0  0  0  0  0  0  0
    2.5369   -0.2150    0.0000 H   0  0  0  0  0  0  0  0  0  0  0  0
  1 23  1  0  0  0  0
  2 23  1  0  0  0  0
  3 23  1  0  0  0  0
  4 24  2  0  0  0  0
  5 11  1  0  0  0  0
  5 12  1  0  0  0  0
  5 25  1  0  0  0  0
  6 14  1  0  0  0  0
  6 17  1  0  0  0  0
  6 30  1  0  0  0  0
  7 12  2  0  0  0  0
  7 17  1  0  0  0  0
  8 17  2  0  0  0  0
  8 22  1  0  0  0  0
  9 19  1  0  0  0  0
  9 36  1  0  0  0  0
  9 37  1  0  0  0  0
 10 24  1  0  0  0  0
 10 38  1  0  0  0  0
 10 39  1  0  0  0  0
 11 15  1  0  0  0  0
 11 18  2  0  0  0  0
 12 16  1  0  0  0  0
 13 15  2  0  0  0  0
 13 20  1  0  0  0  0
 13 23  1  0  0  0  0
 14 19  1  0  0  0  0
 14 26  1  0  0  0  0
 14 27  1  0  0  0  0
 15 28  1  0  0  0  0
 16 22  2  0  0  0  0
 16 24  1  0  0  0  0
 18 21  1  0  0  0  0
 18 29  1  0  0  0  0
 19 31  1  0  0  0  0
 19 32  1  0  0  0  0
 20 21  2  0  0  0  0
 20 33  1  0  0  0  0
 21 34  1  0  0  0  0
 22 35  1  0  0  0  0
M  END
> <PUBCHEM_COMPOUND_CID>
9549296

> <PUBCHEM_COMPOUND_CANONICALIZED>
1

> <PUBCHEM_CACTVS_COMPLEXITY>
422

> <PUBCHEM_CACTVS_HBOND_ACCEPTOR>
9

> <PUBCHEM_CACTVS_HBOND_DONOR>
4

> <PUBCHEM_CACTVS_ROTATABLE_BOND>
6

> <PUBCHEM_CACTVS_SUBSKEYS>
AAADccBzoYAAAAAAAAAAAAAAAAAAAAAAAAA8QAAAAAAAAAABwAAAHwAQAAAADAjBmhQ98JbIEACoAjd3dACCgCk1AqAJ2KEoZNiIaOrA2dGUJIhokALIyOcQgAAOAAAAQAAAAAAAAACAAAAAAAAAAAAAAA==

> <PUBCHEM_IUPAC_OPENEYE_NAME>
2-(2-aminoethylamino)-4-[3-(trifluoromethyl)anilino]pyrimidine-5-carboxamide

> <PUBCHEM_IUPAC_CAS_NAME>
2-(2-aminoethylamino)-4-[3-(trifluoromethyl)anilino]-5-pyrimidinecarboxamide

> <PUBCHEM_IUPAC_NAME_MARKUP>
2-(2-aminoethylamino)-4-[3-(trifluoromethyl)anilino]pyrimidine-5-carboxamide

> <PUBCHEM_IUPAC_NAME>
2-(2-aminoethylamino)-4-[3-(trifluoromethyl)anilino]pyrimidine-5-carboxamide

> <PUBCHEM_IUPAC_SYSTEMATIC_NAME>
2-(2-azanylethylamino)-4-[[3-(trifluoromethyl)phenyl]amino]pyrimidine-5-carboxamide

> <PUBCHEM_IUPAC_TRADITIONAL_NAME>
2-(2-aminoethylamino)-4-[3-(trifluoromethyl)anilino]pyrimidine-5-carboxamide

> <PUBCHEM_IUPAC_INCHI>
InChI=1S/C14H15F3N6O/c15-14(16,17)8-2-1-3-9(6-8)22-12-10(11(19)24)7-21-13(23-12)20-5-4-18/h1-3,6-7H,4-5,18H2,(H2,19,24)(H2,20,21,22,23)

> <PUBCHEM_IUPAC_INCHIKEY>
FQNFLNSVHWCZML-UHFFFAOYSA-N

> <PUBCHEM_XLOGP3_AA>
1.8

> <PUBCHEM_EXACT_MASS>
340.12594361

> <PUBCHEM_MOLECULAR_FORMULA>
C14H15F3N6O

> <PUBCHEM_MOLECULAR_WEIGHT>
340.30

> <PUBCHEM_OPENEYE_CAN_SMILES>
C1=CC(=CC(=C1)NC2=NC(=NC=C2C(=O)N)NCCN)C(F)(F)F

> <PUBCHEM_OPENEYE_ISO_SMILES>
C1=CC(=CC(=C1)NC2=NC(=NC=C2C(=O)N)NCCN)C(F)(F)F

> <PUBCHEM_CACTVS_TPSA>
119

> <PUBCHEM_MONOISOTOPIC_WEIGHT>
340.12594361

> <PUBCHEM_TOTAL_CHARGE>
0

> <PUBCHEM_HEAVY_ATOM_COUNT>
24

> <PUBCHEM_ATOM_DEF_STEREO_COUNT>
0

> <PUBCHEM_ATOM_UDEF_STEREO_COUNT>
0

> <PUBCHEM_BOND_DEF_STEREO_COUNT>
0

> <PUBCHEM_BOND_UDEF_STEREO_COUNT>
0

> <PUBCHEM_ISOTOPIC_ATOM_COUNT>
0

> <PUBCHEM_COMPONENT_COUNT>
1

> <PUBCHEM_CACTVS_TAUTO_COUNT>
21

> <PUBCHEM_COORDINATE_TYPE>
1
5
255

> <PUBCHEM_BONDANNOTATIONS>
11  15  8
11  18  8
12  16  8
13  15  8
13  20  8
16  22  8
18  21  8
20  21  8
7  12  8
7  17  8
8  17  8
8  22  8

$$$$
16126651
  -OEChem-11282412102D

 57 61  0     1  0  0  0  0  0999 V2000
    2.9854   -4.0284    0.0000 O   0  0  0  0  0  0  0  0  0  0  0  0
    5.9209    4.5665    0.0000 O   0  0  0  0  0  0  0  0  0  0  0  0
    4.6318   -3.4904    0.0000 N   0  0  0  0  0  0  0  0  0  0  0  0
    4.6783   -0.8450    0.0000 N   0  0  0  0  0  0  0  0  0  0  0  0
    5.2619   -0.0403    0.0000 N   0  0  0  0  0  0  0  0  0  0  0  0
    2.8660   -1.0403    0.0000 N   0  0  0  0  0  0  0  0  0  0  0  0
    2.0000    0.4597    0.0000 N   0  0  0  0  0  0  0  0  0  0  0  0
    2.8660    1.9597    0.0000 N   0  0  0  0  0  0  0  0  0  0  0  0
    4.9889   -1.7955    0.0000 C   0  0  3  0  0  0  0  0  0  0  0  0
    5.9674   -2.0018    0.0000 C   0  0  0  0  0  0  0  0  0  0  0  0
    4.3211   -2.5398    0.0000 C   0  0  0  0  0  0  0  0  0  0  0  0
    6.2781   -2.9523    0.0000 C   0  0  0  0  0  0  0  0  0  0  0  0
    5.6103   -3.6966    0.0000 C   0  0  0  0  0  0  0  0  0  0  0  0
    3.7320   -0.5403    0.0000 C   0  0  0  0  0  0  0  0  0  0  0  0
    3.7320    0.4597    0.0000 C   0  0  0  0  0  0  0  0  0  0  0  0
    3.9639   -4.2347    0.0000 C   0  0  0  0  0  0  0  0  0  0  0  0
    4.6783    0.7644    0.0000 C   0  0  0  0  0  0  0  0  0  0  0  0
    2.8660    0.9597    0.0000 C   0  0  0  0  0  0  0  0  0  0  0  0
    4.9889    1.7150    0.0000 C   0  0  0  0  0  0  0  0  0  0  0  0
    4.2746   -5.1852    0.0000 C   0  0  0  0  0  0  0  0  0  0  0  0
    2.0000   -0.5403    0.0000 C   0  0  0  0  0  0  0  0  0  0  0  0
    4.3211    2.4593    0.0000 C   0  0  0  0  0  0  0  0  0  0  0  0
    5.9674    1.9212    0.0000 C   0  0  0  0  0  0  0  0  0  0  0  0
    3.6067   -5.9295    0.0000 C   0  0  0  0  0  0  0  0  0  0  0  0
    4.6318    3.4098    0.0000 C   0  0  0  0  0  0  0  0  0  0  0  0
    6.2781    2.8717    0.0000 C   0  0  0  0  0  0  0  0  0  0  0  0
    5.6103    3.6160    0.0000 C   0  0  0  0  0  0  0  0  0  0  0  0
    6.8994    4.7728    0.0000 C   0  0  0  0  0  0  0  0  0  0  0  0
    7.2101    5.7233    0.0000 C   0  0  0  0  0  0  0  0  0  0  0  0
    7.5673    4.0284    0.0000 C   0  0  0  0  0  0  0  0  0  0  0  0
    8.1886    5.9295    0.0000 C   0  0  0  0  0  0  0  0  0  0  0  0
    8.5458    4.2347    0.0000 C   0  0  0  0  0  0  0  0  0  0  0  0
    8.8564    5.1852    0.0000 C   0  0  0  0  0  0  0  0  0  0  0  0
    5.5566   -1.1629    0.0000 H   0  0  0  0  0  0  0  0  0  0  0  0
    6.5812   -1.9144    0.0000 H   0  0  0  0  0  0  0  0  0  0  0  0
    5.9880   -1.3821    0.0000 H   0  0  0  0  0  0  0  0  0  0  0  0
    3.9385   -2.0519    0.0000 H   0  0  0  0  0  0  0  0  0  0  0  0
    3.7742   -2.8319    0.0000 H   0  0  0  0  0  0  0  0  0  0  0  0
    6.6607   -3.4402    0.0000 H   0  0  0  0  0  0  0  0  0  0  0  0
    6.8250   -2.6603    0.0000 H   0  0  0  0  0  0  0  0  0  0  0  0
    5.3790   -4.2718    0.0000 H   0  0  0  0  0  0  0  0  0  0  0  0
    6.1366   -4.0242    0.0000 H   0  0  0  0  0  0  0  0  0  0  0  0
    4.8812   -5.3130    0.0000 H   0  0  0  0  0  0  0  0  0  0  0  0
    1.4631   -0.8503    0.0000 H   0  0  0  0  0  0  0  0  0  0  0  0
    3.7144    2.3314    0.0000 H   0  0  0  0  0  0  0  0  0  0  0  0
    6.3815    1.4597    0.0000 H   0  0  0  0  0  0  0  0  0  0  0  0
    2.3291    2.2697    0.0000 H   0  0  0  0  0  0  0  0  0  0  0  0
    3.4030    2.2697    0.0000 H   0  0  0  0  0  0  0  0  0  0  0  0
    3.0000   -5.8016    0.0000 H   0  0  0  0  0  0  0  0  0  0  0  0
    3.7993   -6.5188    0.0000 H   0  0  0  0  0  0  0  0  0  0  0  0
    4.2177    3.8712    0.0000 H   0  0  0  0  0  0  0  0  0  0  0  0
    6.8848    2.9996    0.0000 H   0  0  0  0  0  0  0  0  0  0  0  0
    6.7960    6.1847    0.0000 H   0  0  0  0  0  0  0  0  0  0  0  0
    7.3747    3.4391    0.0000 H   0  0  0  0  0  0  0  0  0  0  0  0
    8.3812    6.5188    0.0000 H   0  0  0  0  0  0  0  0  0  0  0  0
    8.9598    3.7732    0.0000 H   0  0  0  0  0  0  0  0  0  0  0  0
    9.4631    5.3130    0.0000 H   0  0  0  0  0  0  0  0  0  0  0  0
  1 16  2  0  0  0  0
  2 27  1  0  0  0  0
  2 28  1  0  0  0  0
  3 11  1  0  0  0  0
  3 13  1  0  0  0  0
  3 16  1  0  0  0  0
  4  5  1  0  0  0  0
  4  9  1  0  0  0  0
  4 14  1  0  0  0  0
  5 17  2  0  0  0  0
  6 14  2  0  0  0  0
  6 21  1  0  0  0  0
  7 18  1  0  0  0  0
  7 21  2  0  0  0  0
  8 18  1  0  0  0  0
  8 47  1  0  0  0  0
  8 48  1  0  0  0  0
  9 10  1  0  0  0  0
  9 11  1  0  0  0  0
  9 34  1  0  0  0  0
 10 12  1  0  0  0  0
 10 35  1  0  0  0  0
 10 36  1  0  0  0  0
 11 37  1  0  0  0  0
 11 38  1  0  0  0  0
 12 13  1  0  0  0  0
 12 39  1  0  0  0  0
 12 40  1  0  0  0  0
 13 41  1  0  0  0  0
 13 42  1  0  0  0  0
 14 15  1  0  0  0  0
 15 17  1  0  0  0  0
 15 18  2  0  0  0  0
 16 20  1  0  0  0  0
 17 19  1  0  0  0  0
 19 22  2  0  0  0  0
 19 23  1  0  0  0  0
 20 24  2  0  0  0  0
 20 43  1  0  0  0  0
 21 44  1  0  0  0  0
 22 25  1  0  0  0  0
 22 45  1  0  0  0  0
 23 26  2  0  0  0  0
 23 46  1  0  0  0  0
 24 49  1  0  0  0  0
 24 50  1  0  0  0  0
 25 27  2  0  0  0  0
 25 51  1  0  0  0  0
 26 27  1  0  0  0  0
 26 52  1  0  0  0  0
 28 29  2  0  0  0  0
 28 30  1  0  0  0  0
 29 31  1  0  0  0  0
 29 53  1  0  0  0  0
 30 32  2  0  0  0  0
 30 54  1  0  0  0  0
 31 33  2  0  0  0  0
 31 55  1  0  0  0  0
 32 33  1  0  0  0  0
 32 56  1  0  0  0  0
 33 57  1  0  0  0  0
M  END
> <PUBCHEM_COMPOUND_CID>
16126651

> <PUBCHEM_COMPOUND_CANONICALIZED>
1

> <PUBCHEM_CACTVS_COMPLEXITY>
678

> <PUBCHEM_CACTVS_HBOND_ACCEPTOR>
6

> <PUBCHEM_CACTVS_HBOND_DONOR>
1

> <PUBCHEM_CACTVS_ROTATABLE_BOND>
5

> <PUBCHEM_CACTVS_SUBSKEYS>
AAADceB7sAAAAAAAAAAAAAAAAAAAAWAAAAA8eIEAAAAAAFgB/AAAHgAYAAAADCzBnwQ1tt9IFACqAydzdACSjCsxoKAd2CAuTNiMbqLE+duWvCjszhPI6KeQ0OEOIAAAAAAAAABAAAAAAAAAAAAAAAAAAA==

> <PUBCHEM_IUPAC_OPENEYE_NAME>
1-[3-[4-amino-3-(4-phenoxyphenyl)pyrazolo[3,4-d]pyrimidin-1-yl]-1-piperidyl]prop-2-en-1-one

> <PUBCHEM_IUPAC_CAS_NAME>
1-[3-[4-amino-3-(4-phenoxyphenyl)-1-pyrazolo[3,4-d]pyrimidinyl]-1-piperidinyl]-2-propen-1-one

> <PUBCHEM_IUPAC_NAME_MARKUP>
1-[3-[4-amino-3-(4-phenoxyphenyl)pyrazolo[3,4-d]pyrimidin-1-yl]piperidin-1-yl]prop-2-en-1-one

> <PUBCHEM_IUPAC_NAME>
1-[3-[4-amino-3-(4-phenoxyphenyl)pyrazolo[3,4-d]pyrimidin-1-yl]piperidin-1-yl]prop-2-en-1-one

> <PUBCHEM_IUPAC_SYSTEMATIC_NAME>
1-[3-[4-azanyl-3-(4-phenoxyphenyl)pyrazolo[3,4-d]pyrimidin-1-yl]piperidin-1-yl]prop-2-en-1-one

> <PUBCHEM_IUPAC_TRADITIONAL_NAME>
1-[3-[4-amino-3-(4-phenoxyphenyl)pyrazolo[3,4-d]pyrimidin-1-yl]piperidino]prop-2-en-1-one

> <PUBCHEM_IUPAC_INCHI>
InChI=1S/C25H24N6O2/c1-2-21(32)30-14-6-7-18(15-30)31-25-22(24(26)27-16-28-25)23(29-31)17-10-12-20(13-11-17)33-19-8-4-3-5-9-19/h2-5,8-13,16,18H,1,6-7,14-15H2,(H2,26,27,28)

> <PUBCHEM_IUPAC_INCHIKEY>
XYFPWWZEPKGCCK-UHFFFAOYSA-N

> <PUBCHEM_XLOGP3_AA>
3.6

> <PUBCHEM_EXACT_MASS>
440.19607403

> <PUBCHEM_MOLECULAR_FORMULA>
C25H24N6O2

> <PUBCHEM_MOLECULAR_WEIGHT>
440.5

> <PUBCHEM_OPENEYE_CAN_SMILES>
C=CC(=O)N1CCCC(C1)N2C3=NC=NC(=C3C(=N2)C4=CC=C(C=C4)OC5=CC=CC=C5)N

> <PUBCHEM_OPENEYE_ISO_SMILES>
C=CC(=O)N1CCCC(C1)N2C3=NC=NC(=C3C(=N2)C4=CC=C(C=C4)OC5=CC=CC=C5)N

> <PUBCHEM_CACTVS_TPSA>
99.2

> <PUBCHEM_MONOISOTOPIC_WEIGHT>
440.19607403

> <PUBCHEM_TOTAL_CHARGE>
0

> <PUBCHEM_HEAVY_ATOM_COUNT>
33

> <PUBCHEM_ATOM_DEF_STEREO_COUNT>
0

> <PUBCHEM_ATOM_UDEF_STEREO_COUNT>
1

> <PUBCHEM_BOND_DEF_STEREO_COUNT>
0

> <PUBCHEM_BOND_UDEF_STEREO_COUNT>
0

> <PUBCHEM_ISOTOPIC_ATOM_COUNT>
0

> <PUBCHEM_COMPONENT_COUNT>
1

> <PUBCHEM_CACTVS_TAUTO_COUNT>
-1

> <PUBCHEM_COORDINATE_TYPE>
1
5
255

> <PUBCHEM_BONDANNOTATIONS>
14  15  8
15  17  8
15  18  8
19  22  8
19  23  8
22  25  8
23  26  8
25  27  8
26  27  8
28  29  8
28  30  8
29  31  8
30  32  8
31  33  8
32  33  8
4  14  8
4  5  8
5  17  8
6  14  8
6  21  8
7  18  8
7  21  8
9  34  3

$$$$
6450551
  -OEChem-11282412102D

 46 49  0     0  0  0  0  0  0999 V2000
    5.1350   -1.6565    0.0000 S   0  0  0  0  0  0  0  0  0  0  0  0
    4.2690   -3.1565    0.0000 O   0  0  0  0  0  0  0  0  0  0  0  0
    8.6793   -1.4612    0.0000 N   0  0  0  0  0  0  0  0  0  0  0  0
    9.2629   -0.6565    0.0000 N   0  0  0  0  0  0  0  0  0  0  0  0
    2.5369   -3.1565    0.0000 N   0  0  0  0  0  0  0  0  0  0  0  0
    9.6113    2.9998    0.0000 N   0  0  0  0  0  0  0  0  0  0  0  0
    7.7331   -0.1565    0.0000 C   0  0  0  0  0  0  0  0  0  0  0  0
    7.7331   -1.1565    0.0000 C   0  0  0  0  0  0  0  0  0  0  0  0
    8.6793    0.1482    0.0000 C   0  0  0  0  0  0  0  0  0  0  0  0
    6.8671   -1.6565    0.0000 C   0  0  0  0  0  0  0  0  0  0  0  0
    6.0010   -1.1565    0.0000 C   0  0  0  0  0  0  0  0  0  0  0  0
    6.8671    0.3435    0.0000 C   0  0  0  0  0  0  0  0  0  0  0  0
    6.0010   -0.1565    0.0000 C   0  0  0  0  0  0  0  0  0  0  0  0
    4.2690   -1.1565    0.0000 C   0  0  0  0  0  0  0  0  0  0  0  0
    8.9900    1.0987    0.0000 C   0  0  0  0  0  0  0  0  0  0  0  0
    3.4030   -1.6565    0.0000 C   0  0  0  0  0  0  0  0  0  0  0  0
    4.2690   -0.1565    0.0000 C   0  0  0  0  0  0  0  0  0  0  0  0
    9.9685    1.3050    0.0000 C   0  0  0  0  0  0  0  0  0  0  0  0
    2.5369   -1.1565    0.0000 C   0  0  0  0  0  0  0  0  0  0  0  0
    3.4030    0.3435    0.0000 C   0  0  0  0  0  0  0  0  0  0  0  0
    3.4030   -2.6565    0.0000 C   0  0  0  0  0  0  0  0  0  0  0  0
    2.5369   -0.1565    0.0000 C   0  0  0  0  0  0  0  0  0  0  0  0
   10.2791    2.2555    0.0000 C   0  0  0  0  0  0  0  0  0  0  0  0
   11.2576    2.4617    0.0000 C   0  0  0  0  0  0  0  0  0  0  0  0
   11.5683    3.4122    0.0000 C   0  0  0  0  0  0  0  0  0  0  0  0
    2.5369   -4.1565    0.0000 C   0  0  0  0  0  0  0  0  0  0  0  0
    9.9220    3.9503    0.0000 C   0  0  0  0  0  0  0  0  0  0  0  0
   10.9005    4.1565    0.0000 C   0  0  0  0  0  0  0  0  0  0  0  0
    6.8671   -2.2765    0.0000 H   0  0  0  0  0  0  0  0  0  0  0  0
    6.8671    0.9635    0.0000 H   0  0  0  0  0  0  0  0  0  0  0  0
    5.4641    0.1535    0.0000 H   0  0  0  0  0  0  0  0  0  0  0  0
    8.8719   -2.0506    0.0000 H   0  0  0  0  0  0  0  0  0  0  0  0
    8.5759    1.5602    0.0000 H   0  0  0  0  0  0  0  0  0  0  0  0
    4.8059    0.1535    0.0000 H   0  0  0  0  0  0  0  0  0  0  0  0
   10.3825    0.8435    0.0000 H   0  0  0  0  0  0  0  0  0  0  0  0
    2.0000   -1.4665    0.0000 H   0  0  0  0  0  0  0  0  0  0  0  0
    3.4030    0.9635    0.0000 H   0  0  0  0  0  0  0  0  0  0  0  0
    2.0000    0.1535    0.0000 H   0  0  0  0  0  0  0  0  0  0  0  0
    2.0000   -2.8465    0.0000 H   0  0  0  0  0  0  0  0  0  0  0  0
   11.6717    2.0002    0.0000 H   0  0  0  0  0  0  0  0  0  0  0  0
   12.1750    3.5401    0.0000 H   0  0  0  0  0  0  0  0  0  0  0  0
    1.9169   -4.1565    0.0000 H   0  0  0  0  0  0  0  0  0  0  0  0
    2.5369   -4.7765    0.0000 H   0  0  0  0  0  0  0  0  0  0  0  0
    3.1569   -4.1565    0.0000 H   0  0  0  0  0  0  0  0  0  0  0  0
    9.5079    4.4118    0.0000 H   0  0  0  0  0  0  0  0  0  0  0  0
   11.0931    4.7458    0.0000 H   0  0  0  0  0  0  0  0  0  0  0  0
  1 11  1  0  0  0  0
  1 14  1  0  0  0  0
  2 21  2  0  0  0  0
  3  4  1  0  0  0  0
  3  8  1  0  0  0  0
  3 32  1  0  0  0  0
  4  9  2  0  0  0  0
  5 21  1  0  0  0  0
  5 26  1  0  0  0  0
  5 39  1  0  0  0  0
  6 23  1  0  0  0  0
  6 27  2  0  0  0  0
  7  8  2  0  0  0  0
  7  9  1  0  0  0  0
  7 12  1  0  0  0  0
  8 10  1  0  0  0  0
  9 15  1  0  0  0  0
 10 11  2  0  0  0  0
 10 29  1  0  0  0  0
 11 13  1  0  0  0  0
 12 13  2  0  0  0  0
 12 30  1  0  0  0  0
 13 31  1  0  0  0  0
 14 16  1  0  0  0  0
 14 17  2  0  0  0  0
 15 18  2  0  0  0  0
 15 33  1  0  0  0  0
 16 19  2  0  0  0  0
 16 21  1  0  0  0  0
 17 20  1  0  0  0  0
 17 34  1  0  0  0  0
 18 23  1  0  0  0  0
 18 35  1  0  0  0  0
 19 22  1  0  0  0  0
 19 36  1  0  0  0  0
 20 22  2  0  0  0  0
 20 37  1  0  0  0  0
 22 38  1  0  0  0  0
 23 24  2  0  0  0  0
 24 25  1  0  0  0  0
 24 40  1  0  0  0  0
 25 28  2  0  0  0  0
 25 41  1  0  0  0  0
 26 42  1  0  0  0  0
 26 43  1  0  0  0  0
 26 44  1  0  0  0  0
 27 28  1  0  0  0  0
 27 45  1  0  0  0  0
 28 46  1  0  0  0  0
M  END
> <PUBCHEM_COMPOUND_CID>
6450551

> <PUBCHEM_COMPOUND_CANONICALIZED>
1

> <PUBCHEM_CACTVS_COMPLEXITY>
557

> <PUBCHEM_CACTVS_HBOND_ACCEPTOR>
4

> <PUBCHEM_CACTVS_HBOND_DONOR>
2

> <PUBCHEM_CACTVS_ROTATABLE_BOND>
5

> <PUBCHEM_CACTVS_SUBSKEYS>
AAADceB7oABAAAAAAAAAAAAAAAAAAWAAAAA8YIAAAAAAAFgB/AAAHgQYAAAADAjB3gQ+wfLrEAiqAzV3VACShCA1CjAY+bk4ZNgIIPLg1dGEpQxgmgDoyYcYiICOEAAAACAGAAAgAAAAQAwAAAAAAAAAAA==

> <PUBCHEM_IUPAC_OPENEYE_NAME>
N-methyl-2-[[3-[(E)-2-(2-pyridyl)vinyl]-1H-indazol-6-yl]sulfanyl]benzamide

> <PUBCHEM_IUPAC_CAS_NAME>
N-methyl-2-[[3-[(E)-2-(2-pyridinyl)ethenyl]-1H-indazol-6-yl]thio]benzamide

> <PUBCHEM_IUPAC_NAME_MARKUP>
<I>N</I>-methyl-2-[[3-[(<I>E</I>)-2-pyridin-2-ylethenyl]-1<I>H</I>-indazol-6-yl]sulfanyl]benzamide

> <PUBCHEM_IUPAC_NAME>
N-methyl-2-[[3-[(E)-2-pyridin-2-ylethenyl]-1H-indazol-6-yl]sulfanyl]benzamide

> <PUBCHEM_IUPAC_SYSTEMATIC_NAME>
N-methyl-2-[[3-[(E)-2-pyridin-2-ylethenyl]-1H-indazol-6-yl]sulfanyl]benzamide

> <PUBCHEM_IUPAC_TRADITIONAL_NAME>
N-methyl-2-[[3-[(E)-2-(2-pyridyl)vinyl]-1H-indazol-6-yl]thio]benzamide

> <PUBCHEM_IUPAC_INCHI>
InChI=1S/C22H18N4OS/c1-23-22(27)18-7-2-3-8-21(18)28-16-10-11-17-19(25-26-20(17)14-16)12-9-15-6-4-5-13-24-15/h2-14H,1H3,(H,23,27)(H,25,26)/b12-9+

> <PUBCHEM_IUPAC_INCHIKEY>
RITAVMQDGBJQJZ-FMIVXFBMSA-N

> <PUBCHEM_XLOGP3_AA>
4.2

> <PUBCHEM_EXACT_MASS>
386.12013238

> <PUBCHEM_MOLECULAR_FORMULA>
C22H18N4OS

> <PUBCHEM_MOLECULAR_WEIGHT>
386.5

> <PUBCHEM_OPENEYE_CAN_SMILES>
CNC(=O)C1=CC=CC=C1SC2=CC3=C(C=C2)C(=NN3)C=CC4=CC=CC=N4

> <PUBCHEM_OPENEYE_ISO_SMILES>
CNC(=O)C1=CC=CC=C1SC2=CC3=C(C=C2)C(=NN3)/C=C/C4=CC=CC=N4

> <PUBCHEM_CACTVS_TPSA>
96

> <PUBCHEM_MONOISOTOPIC_WEIGHT>
386.12013238

> <PUBCHEM_TOTAL_CHARGE>
0

> <PUBCHEM_HEAVY_ATOM_COUNT>
28

> <PUBCHEM_ATOM_DEF_STEREO_COUNT>
0

> <PUBCHEM_ATOM_UDEF_STEREO_COUNT>
0

> <PUBCHEM_BOND_DEF_STEREO_COUNT>
1

> <PUBCHEM_BOND_UDEF_STEREO_COUNT>
0

> <PUBCHEM_ISOTOPIC_ATOM_COUNT>
0

> <PUBCHEM_COMPONENT_COUNT>
1

> <PUBCHEM_CACTVS_TAUTO_COUNT>
-1

> <PUBCHEM_COORDINATE_TYPE>
1
5
255

> <PUBCHEM_BONDANNOTATIONS>
10  11  8
11  13  8
12  13  8
14  16  8
14  17  8
16  19  8
17  20  8
19  22  8
20  22  8
23  24  8
24  25  8
25  28  8
27  28  8
3  4  8
3  8  8
4  9  8
6  23  8
6  27  8
7  12  8
7  8  8
7  9  8
8  10  8

$$$$
216239
  -OEChem-11282412102D

 48 50  0     0  0  0  0  0  0999 V2000
    2.0000    3.7500    0.0000 Cl  0  0  0  0  0  0  0  0  0  0  0  0
    3.7320    5.7500    0.0000 F   0  0  0  0  0  0  0  0  0  0  0  0
    4.7320    4.7500    0.0000 F   0  0  0  0  0  0  0  0  0  0  0  0
    2.7320    4.7500    0.0000 F   0  0  0  0  0  0  0  0  0  0  0  0
    6.3301   -3.7500    0.0000 O   0  0  0  0  0  0  0  0  0  0  0  0
    4.5981    0.2500    0.0000 O   0  0  0  0  0  0  0  0  0  0  0  0
    9.7942   -2.7500    0.0000 O   0  0  0  0  0  0  0  0  0  0  0  0
    5.4641    1.7500    0.0000 N   0  0  0  0  0  0  0  0  0  0  0  0
    6.3301    0.2500    0.0000 N   0  0  0  0  0  0  0  0  0  0  0  0
    8.9282   -5.2500    0.0000 N   0  0  0  0  0  0  0  0  0  0  0  0
   10.6603   -4.2500    0.0000 N   0  0  0  0  0  0  0  0  0  0  0  0
    4.5981    2.2500    0.0000 C   0  0  0  0  0  0  0  0  0  0  0  0
    3.7320    3.7500    0.0000 C   0  0  0  0  0  0  0  0  0  0  0  0
    4.5981    3.2500    0.0000 C   0  0  0  0  0  0  0  0  0  0  0  0
    6.3301   -0.7500    0.0000 C   0  0  0  0  0  0  0  0  0  0  0  0
    3.7320    1.7500    0.0000 C   0  0  0  0  0  0  0  0  0  0  0  0
    6.3301   -2.7500    0.0000 C   0  0  0  0  0  0  0  0  0  0  0  0
    2.8660    3.2500    0.0000 C   0  0  0  0  0  0  0  0  0  0  0  0
    5.4641   -1.2500    0.0000 C   0  0  0  0  0  0  0  0  0  0  0  0
    7.1962   -1.2500    0.0000 C   0  0  0  0  0  0  0  0  0  0  0  0
    2.8660    2.2500    0.0000 C   0  0  0  0  0  0  0  0  0  0  0  0
    5.4641   -2.2500    0.0000 C   0  0  0  0  0  0  0  0  0  0  0  0
    7.1962   -2.2500    0.0000 C   0  0  0  0  0  0  0  0  0  0  0  0
    5.4641    0.7500    0.0000 C   0  0  0  0  0  0  0  0  0  0  0  0
    3.7320    4.7500    0.0000 C   0  0  0  0  0  0  0  0  0  0  0  0
    7.1962   -4.2500    0.0000 C   0  0  0  0  0  0  0  0  0  0  0  0
    8.0622   -3.7500    0.0000 C   0  0  0  0  0  0  0  0  0  0  0  0
    8.9282   -4.2500    0.0000 C   0  0  0  0  0  0  0  0  0  0  0  0
    7.1962   -5.2500    0.0000 C   0  0  0  0  0  0  0  0  0  0  0  0
    8.0622   -5.7500    0.0000 C   0  0  0  0  0  0  0  0  0  0  0  0
    9.7942   -3.7500    0.0000 C   0  0  0  0  0  0  0  0  0  0  0  0
   11.5263   -3.7500    0.0000 C   0  0  0  0  0  0  0  0  0  0  0  0
    5.1350    3.5600    0.0000 H   0  0  0  0  0  0  0  0  0  0  0  0
    3.7320    1.1300    0.0000 H   0  0  0  0  0  0  0  0  0  0  0  0
    6.0010    2.0600    0.0000 H   0  0  0  0  0  0  0  0  0  0  0  0
    4.9272   -0.9400    0.0000 H   0  0  0  0  0  0  0  0  0  0  0  0
    7.7331   -0.9400    0.0000 H   0  0  0  0  0  0  0  0  0  0  0  0
    6.8671    0.5600    0.0000 H   0  0  0  0  0  0  0  0  0  0  0  0
    2.3291    1.9400    0.0000 H   0  0  0  0  0  0  0  0  0  0  0  0
    4.9272   -2.5600    0.0000 H   0  0  0  0  0  0  0  0  0  0  0  0
    7.7331   -2.5600    0.0000 H   0  0  0  0  0  0  0  0  0  0  0  0
    8.0622   -3.1300    0.0000 H   0  0  0  0  0  0  0  0  0  0  0  0
    6.6592   -5.5600    0.0000 H   0  0  0  0  0  0  0  0  0  0  0  0
    8.0622   -6.3700    0.0000 H   0  0  0  0  0  0  0  0  0  0  0  0
   10.6603   -4.8700    0.0000 H   0  0  0  0  0  0  0  0  0  0  0  0
   11.8363   -4.2869    0.0000 H   0  0  0  0  0  0  0  0  0  0  0  0
   12.0632   -3.4400    0.0000 H   0  0  0  0  0  0  0  0  0  0  0  0
   11.2163   -3.2131    0.0000 H   0  0  0  0  0  0  0  0  0  0  0  0
  1 18  1  0  0  0  0
  2 25  1  0  0  0  0
  3 25  1  0  0  0  0
  4 25  1  0  0  0  0
  5 17  1  0  0  0  0
  5 26  1  0  0  0  0
  6 24  2  0  0  0  0
  7 31  2  0  0  0  0
  8 12  1  0  0  0  0
  8 24  1  0  0  0  0
  8 35  1  0  0  0  0
  9 15  1  0  0  0  0
  9 24  1  0  0  0  0
  9 38  1  0  0  0  0
 10 28  2  0  0  0  0
 10 30  1  0  0  0  0
 11 31  1  0  0  0  0
 11 32  1  0  0  0  0
 11 45  1  0  0  0  0
 12 14  2  0  0  0  0
 12 16  1  0  0  0  0
 13 14  1  0  0  0  0
 13 18  2  0  0  0  0
 13 25  1  0  0  0  0
 14 33  1  0  0  0  0
 15 19  2  0  0  0  0
 15 20  1  0  0  0  0
 16 21  2  0  0  0  0
 16 34  1  0  0  0  0
 17 22  2  0  0  0  0
 17 23  1  0  0  0  0
 18 21  1  0  0  0  0
 19 22  1  0  0  0  0
 19 36  1  0  0  0  0
 20 23  2  0  0  0  0
 20 37  1  0  0  0  0
 21 39  1  0  0  0  0
 22 40  1  0  0  0  0
 23 41  1  0  0  0  0
 26 27  2  0  0  0  0
 26 29  1  0  0  0  0
 27 28  1  0  0  0  0
 27 42  1  0  0  0  0
 28 31  1  0  0  0  0
 29 30  2  0  0  0  0
 29 43  1  0  0  0  0
 30 44  1  0  0  0  0
 32 46  1  0  0  0  0
 32 47  1  0  0  0  0
 32 48  1  0  0  0  0
M  END
> <PUBCHEM_COMPOUND_CID>
216239

> <PUBCHEM_COMPOUND_CANONICALIZED>
1

> <PUBCHEM_CACTVS_COMPLEXITY>
646

> <PUBCHEM_CACTVS_HBOND_ACCEPTOR>
7

> <PUBCHEM_CACTVS_HBOND_DONOR>
3

> <PUBCHEM_CACTVS_ROTATABLE_BOND>
5

> <PUBCHEM_CACTVS_SUBSKEYS>
AAADceB7sYAEAAAAAAAAAAAAAAAAAAAAAAA8YIAAAAAAAAAB0AAAHwIQAAAADA7BnjQ/xpLIFACoAzV3VACCiCA3JyAI2KG+btiMZnLFt7uWOSju1hvI6ae6yAAOAEBAQAABAAAAgICAAAIAAAAAAAAAAA==

> <PUBCHEM_IUPAC_OPENEYE_NAME>
4-[4-[[4-chloro-3-(trifluoromethyl)phenyl]carbamoylamino]phenoxy]-N-methyl-pyridine-2-carboxamide

> <PUBCHEM_IUPAC_CAS_NAME>
4-[4-[[[4-chloro-3-(trifluoromethyl)anilino]-oxomethyl]amino]phenoxy]-N-methyl-2-pyridinecarboxamide

> <PUBCHEM_IUPAC_NAME_MARKUP>
4-[4-[[4-chloro-3-(trifluoromethyl)phenyl]carbamoylamino]phenoxy]-<I>N</I>-methylpyridine-2-carboxamide

> <PUBCHEM_IUPAC_NAME>
4-[4-[[4-chloro-3-(trifluoromethyl)phenyl]carbamoylamino]phenoxy]-N-methylpyridine-2-carboxamide

> <PUBCHEM_IUPAC_SYSTEMATIC_NAME>
4-[4-[[4-chloranyl-3-(trifluoromethyl)phenyl]carbamoylamino]phenoxy]-N-methyl-pyridine-2-carboxamide

> <PUBCHEM_IUPAC_TRADITIONAL_NAME>
4-[4-[[4-chloro-3-(trifluoromethyl)phenyl]carbamoylamino]phenoxy]-N-methyl-picolinamide

> <PUBCHEM_IUPAC_INCHI>
InChI=1S/C21H16ClF3N4O3/c1-26-19(30)18-11-15(8-9-27-18)32-14-5-2-12(3-6-14)28-20(31)29-13-4-7-17(22)16(10-13)21(23,24)25/h2-11H,1H3,(H,26,30)(H2,28,29,31)

> <PUBCHEM_IUPAC_INCHIKEY>
MLDQJTXFUGDVEO-UHFFFAOYSA-N

> <PUBCHEM_XLOGP3_AA>
4.1

> <PUBCHEM_EXACT_MASS>
464.0863026

> <PUBCHEM_MOLECULAR_FORMULA>
C21H16ClF3N4O3

> <PUBCHEM_MOLECULAR_WEIGHT>
464.8

> <PUBCHEM_OPENEYE_CAN_SMILES>
CNC(=O)C1=NC=CC(=C1)OC2=CC=C(C=C2)NC(=O)NC3=CC(=C(C=C3)Cl)C(F)(F)F

> <PUBCHEM_OPENEYE_ISO_SMILES>
CNC(=O)C1=NC=CC(=C1)OC2=CC=C(C=C2)NC(=O)NC3=CC(=C(C=C3)Cl)C(F)(F)F

> <PUBCHEM_CACTVS_TPSA>
92.4

> <PUBCHEM_MONOISOTOPIC_WEIGHT>
464.0863026

> <PUBCHEM_TOTAL_CHARGE>
0

> <PUBCHEM_HEAVY_ATOM_COUNT>
32

> <PUBCHEM_ATOM_DEF_STEREO_COUNT>
0

> <PUBCHEM_ATOM_UDEF_STEREO_COUNT>
0

> <PUBCHEM_BOND_DEF_STEREO_COUNT>
0

> <PUBCHEM_BOND_UDEF_STEREO_COUNT>
0

> <PUBCHEM_ISOTOPIC_ATOM_COUNT>
0

> <PUBCHEM_COMPONENT_COUNT>
1

> <PUBCHEM_CACTVS_TAUTO_COUNT>
-1

> <PUBCHEM_COORDINATE_TYPE>
1
5
255

> <PUBCHEM_BONDANNOTATIONS>
10  28  8
10  30  8
12  14  8
12  16  8
13  14  8
13  18  8
15  19  8
15  20  8
16  21  8
17  22  8
17  23  8
18  21  8
19  22  8
20  23  8
26  27  8
26  29  8
27  28  8
29  30  8

$$$$
406563
  -OEChem-11282412102D

 67 69  0     0  0  0  0  0  0999 V2000
    4.8059   10.1200    0.0000 Cl  0  0  0  0  0  0  0  0  0  0  0  0
    1.4030    7.7150    0.0000 S   0  0  0  0  0  0  0  0  0  0  0  0
    6.5380   12.1200    0.0000 F   0  0  0  0  0  0  0  0  0  0  0  0
    7.5380   11.1200    0.0000 F   0  0  0  0  0  0  0  0  0  0  0  0
    5.5380   11.1200    0.0000 F   0  0  0  0  0  0  0  0  0  0  0  0
    9.1360    2.6200    0.0000 O   0  0  0  0  0  0  0  0  0  0  0  0
    1.4030    8.7150    0.0000 O   0  0  0  0  0  0  0  0  0  0  0  0
    7.4040    6.6200    0.0000 O   0  0  0  0  0  0  0  0  0  0  0  0
    2.4030    7.7150    0.0000 O   0  0  0  0  0  0  0  0  0  0  0  0
    0.4030    7.7150    0.0000 O   0  0  0  0  0  0  0  0  0  0  0  0
   12.6002    3.6200    0.0000 O   0  0  0  0  0  0  0  0  0  0  0  0
    8.2700    8.1200    0.0000 N   0  0  0  0  0  0  0  0  0  0  0  0
    9.1360    6.6200    0.0000 N   0  0  0  0  0  0  0  0  0  0  0  0
   11.7341    1.1200    0.0000 N   0  0  0  0  0  0  0  0  0  0  0  0
   13.4662    2.1200    0.0000 N   0  0  0  0  0  0  0  0  0  0  0  0
    7.4040    8.6200    0.0000 C   0  0  0  0  0  0  0  0  0  0  0  0
    6.5380   10.1200    0.0000 C   0  0  0  0  0  0  0  0  0  0  0  0
    7.4040    9.6200    0.0000 C   0  0  0  0  0  0  0  0  0  0  0  0
    9.1360    5.6200    0.0000 C   0  0  0  0  0  0  0  0  0  0  0  0
    6.5380    8.1200    0.0000 C   0  0  0  0  0  0  0  0  0  0  0  0
    1.4030    6.7150    0.0000 C   0  0  0  0  0  0  0  0  0  0  0  0
    5.6720    9.6200    0.0000 C   0  0  0  0  0  0  0  0  0  0  0  0
    9.1360    3.6200    0.0000 C   0  0  0  0  0  0  0  0  0  0  0  0
    1.4030    4.7150    0.0000 C   0  0  0  0  0  0  0  0  0  0  0  0
    8.2700    5.1200    0.0000 C   0  0  0  0  0  0  0  0  0  0  0  0
   10.0021    5.1200    0.0000 C   0  0  0  0  0  0  0  0  0  0  0  0
    5.6720    8.6200    0.0000 C   0  0  0  0  0  0  0  0  0  0  0  0
    8.2700    7.1200    0.0000 C   0  0  0  0  0  0  0  0  0  0  0  0
    8.2700    4.1200    0.0000 C   0  0  0  0  0  0  0  0  0  0  0  0
   10.0021    4.1200    0.0000 C   0  0  0  0  0  0  0  0  0  0  0  0
    0.5369    6.2150    0.0000 C   0  0  0  0  0  0  0  0  0  0  0  0
    2.2690    6.2150    0.0000 C   0  0  0  0  0  0  0  0  0  0  0  0
    0.5369    5.2150    0.0000 C   0  0  0  0  0  0  0  0  0  0  0  0
    2.2690    5.2150    0.0000 C   0  0  0  0  0  0  0  0  0  0  0  0
    6.5380   11.1200    0.0000 C   0  0  0  0  0  0  0  0  0  0  0  0
   10.0021    2.1200    0.0000 C   0  0  0  0  0  0  0  0  0  0  0  0
    1.4030    3.7150    0.0000 C   0  0  0  0  0  0  0  0  0  0  0  0
   10.8681    2.6200    0.0000 C   0  0  0  0  0  0  0  0  0  0  0  0
   11.7341    2.1200    0.0000 C   0  0  0  0  0  0  0  0  0  0  0  0
   10.0021    1.1200    0.0000 C   0  0  0  0  0  0  0  0  0  0  0  0
   10.8681    0.6200    0.0000 C   0  0  0  0  0  0  0  0  0  0  0  0
   12.6002    2.6200    0.0000 C   0  0  0  0  0  0  0  0  0  0  0  0
   14.3322    2.6200    0.0000 C   0  0  0  0  0  0  0  0  0  0  0  0
    7.9409    9.9300    0.0000 H   0  0  0  0  0  0  0  0  0  0  0  0
    6.5380    7.5000    0.0000 H   0  0  0  0  0  0  0  0  0  0  0  0
    8.8070    8.4300    0.0000 H   0  0  0  0  0  0  0  0  0  0  0  0
    9.6730    6.9300    0.0000 H   0  0  0  0  0  0  0  0  0  0  0  0
    7.7331    5.4300    0.0000 H   0  0  0  0  0  0  0  0  0  0  0  0
   10.5390    5.4300    0.0000 H   0  0  0  0  0  0  0  0  0  0  0  0
    5.1350    8.3100    0.0000 H   0  0  0  0  0  0  0  0  0  0  0  0
    7.7331    3.8100    0.0000 H   0  0  0  0  0  0  0  0  0  0  0  0
   10.5390    3.8100    0.0000 H   0  0  0  0  0  0  0  0  0  0  0  0
    0.0000    6.5250    0.0000 H   0  0  0  0  0  0  0  0  0  0  0  0
    2.8059    6.5250    0.0000 H   0  0  0  0  0  0  0  0  0  0  0  0
    0.0000    4.9050    0.0000 H   0  0  0  0  0  0  0  0  0  0  0  0
    2.8059    4.9050    0.0000 H   0  0  0  0  0  0  0  0  0  0  0  0
    0.7830    3.7150    0.0000 H   0  0  0  0  0  0  0  0  0  0  0  0
    1.4030    3.0950    0.0000 H   0  0  0  0  0  0  0  0  0  0  0  0
    2.0230    3.7150    0.0000 H   0  0  0  0  0  0  0  0  0  0  0  0
   10.8681    3.2400    0.0000 H   0  0  0  0  0  0  0  0  0  0  0  0
    9.4651    0.8100    0.0000 H   0  0  0  0  0  0  0  0  0  0  0  0
   10.8681    0.0000    0.0000 H   0  0  0  0  0  0  0  0  0  0  0  0
    1.9399    9.0250    0.0000 H   0  0  0  0  0  0  0  0  0  0  0  0
   13.4662    1.5000    0.0000 H   0  0  0  0  0  0  0  0  0  0  0  0
   14.6422    2.0831    0.0000 H   0  0  0  0  0  0  0  0  0  0  0  0
   14.8691    2.9300    0.0000 H   0  0  0  0  0  0  0  0  0  0  0  0
   14.0222    3.1569    0.0000 H   0  0  0  0  0  0  0  0  0  0  0  0
  1 22  1  0  0  0  0
  2  7  1  0  0  0  0
  2  9  2  0  0  0  0
  2 10  2  0  0  0  0
  2 21  1  0  0  0  0
  3 35  1  0  0  0  0
  4 35  1  0  0  0  0
  5 35  1  0  0  0  0
  6 23  1  0  0  0  0
  6 36  1  0  0  0  0
  7 63  1  0  0  0  0
  8 28  2  0  0  0  0
 11 42  2  0  0  0  0
 12 16  1  0  0  0  0
 12 28  1  0  0  0  0
 12 46  1  0  0  0  0
 13 19  1  0  0  0  0
 13 28  1  0  0  0  0
 13 47  1  0  0  0  0
 14 39  2  0  0  0  0
 14 41  1  0  0  0  0
 15 42  1  0  0  0  0
 15 43  1  0  0  0  0
 15 64  1  0  0  0  0
 16 18  2  0  0  0  0
 16 20  1  0  0  0  0
 17 18  1  0  0  0  0
 17 22  2  0  0  0  0
 17 35  1  0  0  0  0
 18 44  1  0  0  0  0
 19 25  2  0  0  0  0
 19 26  1  0  0  0  0
 20 27  2  0  0  0  0
 20 45  1  0  0  0  0
 21 31  2  0  0  0  0
 21 32  1  0  0  0  0
 22 27  1  0  0  0  0
 23 29  2  0  0  0  0
 23 30  1  0  0  0  0
 24 33  2  0  0  0  0
 24 34  1  0  0  0  0
 24 37  1  0  0  0  0
 25 29  1  0  0  0  0
 25 48  1  0  0  0  0
 26 30  2  0  0  0  0
 26 49  1  0  0  0  0
 27 50  1  0  0  0  0
 29 51  1  0  0  0  0
 30 52  1  0  0  0  0
 31 33  1  0  0  0  0
 31 53  1  0  0  0  0
 32 34  2  0  0  0  0
 32 54  1  0  0  0  0
 33 55  1  0  0  0  0
 34 56  1  0  0  0  0
 36 38  2  0  0  0  0
 36 40  1  0  0  0  0
 37 57  1  0  0  0  0
 37 58  1  0  0  0  0
 37 59  1  0  0  0  0
 38 39  1  0  0  0  0
 38 60  1  0  0  0  0
 39 42  1  0  0  0  0
 40 41  2  0  0  0  0
 40 61  1  0  0  0  0
 41 62  1  0  0  0  0
 43 65  1  0  0  0  0
 43 66  1  0  0  0  0
 43 67  1  0  0  0  0
M  END
> <PUBCHEM_COMPOUND_CID>
406563

> <PUBCHEM_COMPOUND_CANONICALIZED>
1

> <PUBCHEM_CACTVS_COMPLEXITY>
853

> <PUBCHEM_CACTVS_HBOND_ACCEPTOR>
10

> <PUBCHEM_CACTVS_HBOND_DONOR>
4

> <PUBCHEM_CACTVS_ROTATABLE_BOND>
6

> <PUBCHEM_CACTVS_SUBSKEYS>
AAADceB7uYBEAAAAAAAAAAAAAAAAAAAAAAA8YMEAAAAAAAAB1AAAHwYQCAAADA7B3jQ/x5LIFIKoAzV3VHDCiGA3JyAI2Lm+btiMZnLFt7uWOSju1hvI6ae6yAAOEEBAQAABAAAggICAAAIAAAAAAAAAAA==

> <PUBCHEM_IUPAC_OPENEYE_NAME>
4-[4-[[4-chloro-3-(trifluoromethyl)phenyl]carbamoylamino]phenoxy]-N-methyl-pyridine-2-carboxamide;4-methylbenzenesulfonic acid

> <PUBCHEM_IUPAC_CAS_NAME>
4-[4-[[[4-chloro-3-(trifluoromethyl)anilino]-oxomethyl]amino]phenoxy]-N-methyl-2-pyridinecarboxamide;4-methylbenzenesulfonic acid

> <PUBCHEM_IUPAC_NAME_MARKUP>
4-[4-[[4-chloro-3-(trifluoromethyl)phenyl]carbamoylamino]phenoxy]-<I>N</I>-methylpyridine-2-carboxamide;4-methylbenzenesulfonic acid

> <PUBCHEM_IUPAC_NAME>
4-[4-[[4-chloro-3-(trifluoromethyl)phenyl]carbamoylamino]phenoxy]-N-methylpyridine-2-carboxamide;4-methylbenzenesulfonic acid

> <PUBCHEM_IUPAC_SYSTEMATIC_NAME>
4-[4-[[4-chloranyl-3-(trifluoromethyl)phenyl]carbamoylamino]phenoxy]-N-methyl-pyridine-2-carboxamide;4-methylbenzenesulfonic acid

> <PUBCHEM_IUPAC_TRADITIONAL_NAME>
4-[4-[[4-chloro-3-(trifluoromethyl)phenyl]carbamoylamino]phenoxy]-N-methyl-picolinamide;tosylic acid

> <PUBCHEM_IUPAC_INCHI>
InChI=1S/C21H16ClF3N4O3.C7H8O3S/c1-26-19(30)18-11-15(8-9-27-18)32-14-5-2-12(3-6-14)28-20(31)29-13-4-7-17(22)16(10-13)21(23,24)25;1-6-2-4-7(5-3-6)11(8,9)10/h2-11H,1H3,(H,26,30)(H2,28,29,31);2-5H,1H3,(H,8,9,10)

> <PUBCHEM_IUPAC_INCHIKEY>
IVDHYUQIDRJSTI-UHFFFAOYSA-N

> <PUBCHEM_EXACT_MASS>
636.1057179

> <PUBCHEM_MOLECULAR_FORMULA>
C28H24ClF3N4O6S

> <PUBCHEM_MOLECULAR_WEIGHT>
637.0

> <PUBCHEM_OPENEYE_CAN_SMILES>
CC1=CC=C(C=C1)S(=O)(=O)O.CNC(=O)C1=NC=CC(=C1)OC2=CC=C(C=C2)NC(=O)NC3=CC(=C(C=C3)Cl)C(F)(F)F

> <PUBCHEM_OPENEYE_ISO_SMILES>
CC1=CC=C(C=C1)S(=O)(=O)O.CNC(=O)C1=NC=CC(=C1)OC2=CC=C(C=C2)NC(=O)NC3=CC(=C(C=C3)Cl)C(F)(F)F

> <PUBCHEM_CACTVS_TPSA>
155

> <PUBCHEM_MONOISOTOPIC_WEIGHT>
636.1057179

> <PUBCHEM_TOTAL_CHARGE>
0

> <PUBCHEM_HEAVY_ATOM_COUNT>
43

> <PUBCHEM_ATOM_DEF_STEREO_COUNT>
0

> <PUBCHEM_ATOM_UDEF_STEREO_COUNT>
0

> <PUBCHEM_BOND_DEF_STEREO_COUNT>
0

> <PUBCHEM_BOND_UDEF_STEREO_COUNT>
0

> <PUBCHEM_ISOTOPIC_ATOM_COUNT>
0

> <PUBCHEM_COMPONENT_COUNT>
2

> <PUBCHEM_CACTVS_TAUTO_COUNT>
-1

> <PUBCHEM_COORDINATE_TYPE>
1
5
255

> <PUBCHEM_BONDANNOTATIONS>
14  39  8
14  41  8
16  18  8
16  20  8
17  18  8
17  22  8
19  25  8
19  26  8
20  27  8
21  31  8
21  32  8
22  27  8
23  29  8
23  30  8
24  33  8
24  34  8
25  29  8
26  30  8
31  33  8
32  34  8
36  38  8
36  40  8
38  39  8
40  41  8

$$$$
51039094
  -OEChem-11282412102D

 60 65  0     0  0  0  0  0  0999 V2000
    4.3442    2.5044    0.0000 O   0  0  0  0  0  0  0  0  0  0  0  0
   12.2359   -2.0646    0.0000 O   0  0  0  0  0  0  0  0  0  0  0  0
    3.5352    1.1031    0.0000 N   0  0  0  0  0  0  0  0  0  0  0  0
    5.3147    1.0099    0.0000 N   0  0  0  0  0  0  0  0  0  0  0  0
    8.7952   -0.0247    0.0000 N   0  0  0  0  0  0  0  0  0  0  0  0
    8.8067    3.0445    0.0000 N   0  0  0  0  0  0  0  0  0  0  0  0
    9.7128    1.4891    0.0000 N   0  0  0  0  0  0  0  0  0  0  0  0
   14.8512   -0.5948    0.0000 N   0  0  0  0  0  0  0  0  0  0  0  0
   15.7822   -1.9104    0.0000 N   0  0  0  0  0  0  0  0  0  0  0  0
   15.8009   -0.3010    0.0000 N   0  0  0  0  0  0  0  0  0  0  0  0
    2.8660    1.8463    0.0000 C   0  0  0  0  0  0  0  0  0  0  0  0
    3.3660    2.7123    0.0000 C   0  0  0  0  0  0  0  0  0  0  0  0
    2.0000    2.3463    0.0000 C   0  0  0  0  0  0  0  0  0  0  0  0
    2.1229    1.1772    0.0000 C   0  0  0  0  0  0  0  0  0  0  0  0
    4.4487    1.5099    0.0000 C   0  0  0  0  0  0  0  0  0  0  0  0
    6.1808    1.5099    0.0000 C   0  0  0  0  0  0  0  0  0  0  0  0
    7.9128    1.5099    0.0000 C   0  0  0  0  0  0  0  0  0  0  0  0
    7.0468    1.0099    0.0000 C   0  0  0  0  0  0  0  0  0  0  0  0
    6.1808    2.5099    0.0000 C   0  0  0  0  0  0  0  0  0  0  0  0
    7.9128    2.5099    0.0000 C   0  0  0  0  0  0  0  0  0  0  0  0
    8.8067    0.9752    0.0000 C   0  0  0  0  0  0  0  0  0  0  0  0
    7.0468    3.0099    0.0000 C   0  0  0  0  0  0  0  0  0  0  0  0
    9.6554   -0.5347    0.0000 C   0  0  0  0  0  0  0  0  0  0  0  0
   10.5040   -2.0446    0.0000 C   0  0  0  0  0  0  0  0  0  0  0  0
    9.6438   -1.5346    0.0000 C   0  0  0  0  0  0  0  0  0  0  0  0
   11.3757   -1.5547    0.0000 C   0  0  0  0  0  0  0  0  0  0  0  0
   10.5271   -0.0447    0.0000 C   0  0  0  0  0  0  0  0  0  0  0  0
   11.3873   -0.5547    0.0000 C   0  0  0  0  0  0  0  0  0  0  0  0
    9.7128    2.5307    0.0000 C   0  0  0  0  0  0  0  0  0  0  0  0
   10.4924   -3.0445    0.0000 C   0  0  0  0  0  0  0  0  0  0  0  0
   13.1077   -1.5747    0.0000 C   0  0  0  0  0  0  0  0  0  0  0  0
   13.9679   -2.0847    0.0000 C   0  0  0  0  0  0  0  0  0  0  0  0
   14.8396   -1.5947    0.0000 C   0  0  0  0  0  0  0  0  0  0  0  0
   13.1192   -0.5748    0.0000 C   0  0  0  0  0  0  0  0  0  0  0  0
   13.9910   -0.0848    0.0000 C   0  0  0  0  0  0  0  0  0  0  0  0
   16.3751   -1.1124    0.0000 C   0  0  0  0  0  0  0  0  0  0  0  0
    3.5576    3.3020    0.0000 H   0  0  0  0  0  0  0  0  0  0  0  0
    2.7996    2.9645    0.0000 H   0  0  0  0  0  0  0  0  0  0  0  0
    2.3100    2.8832    0.0000 H   0  0  0  0  0  0  0  0  0  0  0  0
    1.4631    2.6563    0.0000 H   0  0  0  0  0  0  0  0  0  0  0  0
    1.6900    1.8094    0.0000 H   0  0  0  0  0  0  0  0  0  0  0  0
    1.7080    1.6379    0.0000 H   0  0  0  0  0  0  0  0  0  0  0  0
    1.6621    0.7623    0.0000 H   0  0  0  0  0  0  0  0  0  0  0  0
    2.5377    0.7164    0.0000 H   0  0  0  0  0  0  0  0  0  0  0  0
    5.3147    0.3899    0.0000 H   0  0  0  0  0  0  0  0  0  0  0  0
    7.0468    0.3899    0.0000 H   0  0  0  0  0  0  0  0  0  0  0  0
    5.6438    2.8199    0.0000 H   0  0  0  0  0  0  0  0  0  0  0  0
    7.0468    3.6299    0.0000 H   0  0  0  0  0  0  0  0  0  0  0  0
    8.2547   -0.3285    0.0000 H   0  0  0  0  0  0  0  0  0  0  0  0
    9.1033   -1.8384    0.0000 H   0  0  0  0  0  0  0  0  0  0  0  0
   10.5343    0.5752    0.0000 H   0  0  0  0  0  0  0  0  0  0  0  0
   11.9278   -0.2510    0.0000 H   0  0  0  0  0  0  0  0  0  0  0  0
   10.2485    2.8428    0.0000 H   0  0  0  0  0  0  0  0  0  0  0  0
    9.8725   -3.0374    0.0000 H   0  0  0  0  0  0  0  0  0  0  0  0
   10.4853   -3.6645    0.0000 H   0  0  0  0  0  0  0  0  0  0  0  0
   11.1124   -3.0517    0.0000 H   0  0  0  0  0  0  0  0  0  0  0  0
   13.9607   -2.7046    0.0000 H   0  0  0  0  0  0  0  0  0  0  0  0
   12.5859   -0.2586    0.0000 H   0  0  0  0  0  0  0  0  0  0  0  0
   13.9982    0.5352    0.0000 H   0  0  0  0  0  0  0  0  0  0  0  0
   16.9951   -1.1196    0.0000 H   0  0  0  0  0  0  0  0  0  0  0  0
  1 12  1  0  0  0  0
  1 15  1  0  0  0  0
  2 26  1  0  0  0  0
  2 31  1  0  0  0  0
  3 11  1  0  0  0  0
  3 15  2  0  0  0  0
  4 15  1  0  0  0  0
  4 16  1  0  0  0  0
  4 45  1  0  0  0  0
  5 21  1  0  0  0  0
  5 23  1  0  0  0  0
  5 49  1  0  0  0  0
  6 20  1  0  0  0  0
  6 29  2  0  0  0  0
  7 21  2  0  0  0  0
  7 29  1  0  0  0  0
  8 10  1  0  0  0  0
  8 33  1  0  0  0  0
  8 35  1  0  0  0  0
  9 33  2  0  0  0  0
  9 36  1  0  0  0  0
 10 36  2  0  0  0  0
 11 12  1  0  0  0  0
 11 13  1  0  0  0  0
 11 14  1  0  0  0  0
 12 37  1  0  0  0  0
 12 38  1  0  0  0  0
 13 39  1  0  0  0  0
 13 40  1  0  0  0  0
 13 41  1  0  0  0  0
 14 42  1  0  0  0  0
 14 43  1  0  0  0  0
 14 44  1  0  0  0  0
 16 18  2  0  0  0  0
 16 19  1  0  0  0  0
 17 18  1  0  0  0  0
 17 20  2  0  0  0  0
 17 21  1  0  0  0  0
 18 46  1  0  0  0  0
 19 22  2  0  0  0  0
 19 47  1  0  0  0  0
 20 22  1  0  0  0  0
 22 48  1  0  0  0  0
 23 25  2  0  0  0  0
 23 27  1  0  0  0  0
 24 25  1  0  0  0  0
 24 26  2  0  0  0  0
 24 30  1  0  0  0  0
 25 50  1  0  0  0  0
 26 28  1  0  0  0  0
 27 28  2  0  0  0  0
 27 51  1  0  0  0  0
 28 52  1  0  0  0  0
 29 53  1  0  0  0  0
 30 54  1  0  0  0  0
 30 55  1  0  0  0  0
 30 56  1  0  0  0  0
 31 32  2  0  0  0  0
 31 34  1  0  0  0  0
 32 33  1  0  0  0  0
 32 57  1  0  0  0  0
 34 35  2  0  0  0  0
 34 58  1  0  0  0  0
 35 59  1  0  0  0  0
 36 60  1  0  0  0  0
M  END
> <PUBCHEM_COMPOUND_CID>
51039094

> <PUBCHEM_COMPOUND_CANONICALIZED>
1

> <PUBCHEM_CACTVS_COMPLEXITY>
796

> <PUBCHEM_CACTVS_HBOND_ACCEPTOR>
8

> <PUBCHEM_CACTVS_HBOND_DONOR>
2

> <PUBCHEM_CACTVS_ROTATABLE_BOND>
6

> <PUBCHEM_CACTVS_SUBSKEYS>
AAADceB78AAAAAAAAAAAAAAAAAAAAWIAAAA8eIEAAAAAAFix/gAAHgAYAAAADIzhnwY/9v7IFACiAzZnZACSjCsxoqAd2CA+bJmOLuLE+duPvCju2BvI6CewwCAOAECAQAAKAAAAgQCAABQAAAAAAAAAAA==

> <PUBCHEM_IUPAC_OPENEYE_NAME>
N6-(4,4-dimethyl-5H-oxazol-2-yl)-N4-[3-methyl-4-([1,2,4]triazolo[1,5-a]pyridin-7-yloxy)phenyl]quinazoline-4,6-diamine

> <PUBCHEM_IUPAC_CAS_NAME>
N6-(4,4-dimethyl-5H-oxazol-2-yl)-N4-[3-methyl-4-([1,2,4]triazolo[1,5-a]pyridin-7-yloxy)phenyl]quinazoline-4,6-diamine

> <PUBCHEM_IUPAC_NAME_MARKUP>
6-<I>N</I>-(4,4-dimethyl-5<I>H</I>-1,3-oxazol-2-yl)-4-<I>N</I>-[3-methyl-4-([1,2,4]triazolo[1,5-a]pyridin-7-yloxy)phenyl]quinazoline-4,6-diamine

> <PUBCHEM_IUPAC_NAME>
6-N-(4,4-dimethyl-5H-1,3-oxazol-2-yl)-4-N-[3-methyl-4-([1,2,4]triazolo[1,5-a]pyridin-7-yloxy)phenyl]quinazoline-4,6-diamine

> <PUBCHEM_IUPAC_SYSTEMATIC_NAME>
N6-(4,4-dimethyl-5H-1,3-oxazol-2-yl)-N4-[3-methyl-4-([1,2,4]triazolo[1,5-a]pyridin-7-yloxy)phenyl]quinazoline-4,6-diamine

> <PUBCHEM_IUPAC_TRADITIONAL_NAME>
(4,4-dimethyl-2-oxazolin-2-yl)-[4-[3-methyl-4-([1,2,4]triazolo[1,5-a]pyridin-7-yloxy)anilino]quinazolin-6-yl]amine

> <PUBCHEM_IUPAC_INCHI>
InChI=1S/C26H24N8O2/c1-16-10-17(5-7-22(16)36-19-8-9-34-23(12-19)28-15-30-34)31-24-20-11-18(4-6-21(20)27-14-29-24)32-25-33-26(2,3)13-35-25/h4-12,14-15H,13H2,1-3H3,(H,32,33)(H,27,29,31)

> <PUBCHEM_IUPAC_INCHIKEY>
SDEAXTCZPQIFQM-UHFFFAOYSA-N

> <PUBCHEM_XLOGP3_AA>
4

> <PUBCHEM_EXACT_MASS>
480.20222204

> <PUBCHEM_MOLECULAR_FORMULA>
C26H24N8O2

> <PUBCHEM_MOLECULAR_WEIGHT>
480.5

> <PUBCHEM_OPENEYE_CAN_SMILES>
CC1=C(C=CC(=C1)NC2=NC=NC3=C2C=C(C=C3)NC4=NC(CO4)(C)C)OC5=CC6=NC=NN6C=C5

> <PUBCHEM_OPENEYE_ISO_SMILES>
CC1=C(C=CC(=C1)NC2=NC=NC3=C2C=C(C=C3)NC4=NC(CO4)(C)C)OC5=CC6=NC=NN6C=C5

> <PUBCHEM_CACTVS_TPSA>
111

> <PUBCHEM_MONOISOTOPIC_WEIGHT>
480.20222204

> <PUBCHEM_TOTAL_CHARGE>
0

> <PUBCHEM_HEAVY_ATOM_COUNT>
36

> <PUBCHEM_ATOM_DEF_STEREO_COUNT>
0

> <PUBCHEM_ATOM_UDEF_STEREO_COUNT>
0

> <PUBCHEM_BOND_DEF_STEREO_COUNT>
0

> <PUBCHEM_BOND_UDEF_STEREO_COUNT>
0

> <PUBCHEM_ISOTOPIC_ATOM_COUNT>
0

> <PUBCHEM_COMPONENT_COUNT>
1

> <PUBCHEM_CACTVS_TAUTO_COUNT>
-1

> <PUBCHEM_COORDINATE_TYPE>
1
5
255

> <PUBCHEM_BONDANNOTATIONS>
10  36  8
16  18  8
16  19  8
17  18  8
17  20  8
17  21  8
19  22  8
20  22  8
23  25  8
23  27  8
24  25  8
24  26  8
26  28  8
27  28  8
31  32  8
31  34  8
32  33  8
34  35  8
6  20  8
6  29  8
7  21  8
7  29  8
8  10  8
8  33  8
8  35  8
9  33  8
9  36  8

$$$$
5329102
  -OEChem-11282412102D

 56 58  0     0  0  0  0  0  0999 V2000
    2.0000   -1.4372    0.0000 F   0  0  0  0  0  0  0  0  0  0  0  0
    8.5992    2.0245    0.0000 O   0  0  0  0  0  0  0  0  0  0  0  0
    7.1279   -2.4372    0.0000 O   0  0  0  0  0  0  0  0  0  0  0  0
   12.2029    2.1376    0.0000 N   0  0  0  0  0  0  0  0  0  0  0  0
    7.5754   -1.1461    0.0000 N   0  0  0  0  0  0  0  0  0  0  0  0
    9.8843    0.8633    0.0000 N   0  0  0  0  0  0  0  0  0  0  0  0
    5.5443   -3.2419    0.0000 N   0  0  0  0  0  0  0  0  0  0  0  0
   11.5325    1.3957    0.0000 C   0  0  0  0  0  0  0  0  0  0  0  0
    8.2361    0.3309    0.0000 C   0  0  0  0  0  0  0  0  0  0  0  0
    7.2418    0.4371    0.0000 C   0  0  0  0  0  0  0  0  0  0  0  0
    6.8335   -0.4757    0.0000 C   0  0  0  0  0  0  0  0  0  0  0  0
   10.5547    1.6053    0.0000 C   0  0  0  0  0  0  0  0  0  0  0  0
    8.4423   -0.6476    0.0000 C   0  0  0  0  0  0  0  0  0  0  0  0
   13.1807    1.9280    0.0000 C   0  0  0  0  0  0  0  0  0  0  0  0
   11.8956    3.0892    0.0000 C   0  0  0  0  0  0  0  0  0  0  0  0
    8.9065    1.0729    0.0000 C   0  0  0  0  0  0  0  0  0  0  0  0
    5.5443   -1.6324    0.0000 C   0  0  0  0  0  0  0  0  0  0  0  0
    5.8550   -0.6819    0.0000 C   0  0  0  0  0  0  0  0  0  0  0  0
    4.5981   -1.9372    0.0000 C   0  0  0  0  0  0  0  0  0  0  0  0
    6.7433    1.3040    0.0000 C   0  0  0  0  0  0  0  0  0  0  0  0
    4.5981   -2.9372    0.0000 C   0  0  0  0  0  0  0  0  0  0  0  0
    9.3552   -1.0559    0.0000 C   0  0  0  0  0  0  0  0  0  0  0  0
    6.1279   -2.4372    0.0000 C   0  0  0  0  0  0  0  0  0  0  0  0
   13.8511    2.6700    0.0000 C   0  0  0  0  0  0  0  0  0  0  0  0
   12.5660    3.8312    0.0000 C   0  0  0  0  0  0  0  0  0  0  0  0
    3.7320   -1.4372    0.0000 C   0  0  0  0  0  0  0  0  0  0  0  0
    3.7320   -3.4372    0.0000 C   0  0  0  0  0  0  0  0  0  0  0  0
    2.8660   -1.9372    0.0000 C   0  0  0  0  0  0  0  0  0  0  0  0
    2.8660   -2.9372    0.0000 C   0  0  0  0  0  0  0  0  0  0  0  0
   11.2993    0.8212    0.0000 H   0  0  0  0  0  0  0  0  0  0  0  0
   12.0577    1.0662    0.0000 H   0  0  0  0  0  0  0  0  0  0  0  0
   10.7880    2.1797    0.0000 H   0  0  0  0  0  0  0  0  0  0  0  0
   10.0295    1.9347    0.0000 H   0  0  0  0  0  0  0  0  0  0  0  0
    7.5096   -1.7626    0.0000 H   0  0  0  0  0  0  0  0  0  0  0  0
   12.9475    1.3536    0.0000 H   0  0  0  0  0  0  0  0  0  0  0  0
   13.7059    1.5986    0.0000 H   0  0  0  0  0  0  0  0  0  0  0  0
   11.5147    3.5785    0.0000 H   0  0  0  0  0  0  0  0  0  0  0  0
   11.3476    2.7991    0.0000 H   0  0  0  0  0  0  0  0  0  0  0  0
    5.4409   -0.2204    0.0000 H   0  0  0  0  0  0  0  0  0  0  0  0
   10.0749    0.2733    0.0000 H   0  0  0  0  0  0  0  0  0  0  0  0
    7.2808    1.6131    0.0000 H   0  0  0  0  0  0  0  0  0  0  0  0
    6.4342    1.8415    0.0000 H   0  0  0  0  0  0  0  0  0  0  0  0
    6.2058    0.9950    0.0000 H   0  0  0  0  0  0  0  0  0  0  0  0
    9.1020   -1.6219    0.0000 H   0  0  0  0  0  0  0  0  0  0  0  0
    9.9211   -1.3091    0.0000 H   0  0  0  0  0  0  0  0  0  0  0  0
    9.6083   -0.4900    0.0000 H   0  0  0  0  0  0  0  0  0  0  0  0
   14.3112    2.2544    0.0000 H   0  0  0  0  0  0  0  0  0  0  0  0
   14.2668    3.1301    0.0000 H   0  0  0  0  0  0  0  0  0  0  0  0
   13.3911    3.0857    0.0000 H   0  0  0  0  0  0  0  0  0  0  0  0
   13.0260    3.4156    0.0000 H   0  0  0  0  0  0  0  0  0  0  0  0
   12.9816    4.2912    0.0000 H   0  0  0  0  0  0  0  0  0  0  0  0
   12.1060    4.2469    0.0000 H   0  0  0  0  0  0  0  0  0  0  0  0
    5.7369   -3.8312    0.0000 H   0  0  0  0  0  0  0  0  0  0  0  0
    3.7320   -0.8172    0.0000 H   0  0  0  0  0  0  0  0  0  0  0  0
    3.7320   -4.0572    0.0000 H   0  0  0  0  0  0  0  0  0  0  0  0
    2.3291   -3.2472    0.0000 H   0  0  0  0  0  0  0  0  0  0  0  0
  1 28  1  0  0  0  0
  2 16  2  0  0  0  0
  3 23  2  0  0  0  0
  4  8  1  0  0  0  0
  4 14  1  0  0  0  0
  4 15  1  0  0  0  0
  5 11  1  0  0  0  0
  5 13  1  0  0  0  0
  5 34  1  0  0  0  0
  6 12  1  0  0  0  0
  6 16  1  0  0  0  0
  6 40  1  0  0  0  0
  7 21  1  0  0  0  0
  7 23  1  0  0  0  0
  7 53  1  0  0  0  0
  8 12  1  0  0  0  0
  8 30  1  0  0  0  0
  8 31  1  0  0  0  0
  9 10  1  0  0  0  0
  9 13  2  0  0  0  0
  9 16  1  0  0  0  0
 10 11  2  0  0  0  0
 10 20  1  0  0  0  0
 11 18  1  0  0  0  0
 12 32  1  0  0  0  0
 12 33  1  0  0  0  0
 13 22  1  0  0  0  0
 14 24  1  0  0  0  0
 14 35  1  0  0  0  0
 14 36  1  0  0  0  0
 15 25  1  0  0  0  0
 15 37  1  0  0  0  0
 15 38  1  0  0  0  0
 17 18  2  0  0  0  0
 17 19  1  0  0  0  0
 17 23  1  0  0  0  0
 18 39  1  0  0  0  0
 19 21  2  0  0  0  0
 19 26  1  0  0  0  0
 20 41  1  0  0  0  0
 20 42  1  0  0  0  0
 20 43  1  0  0  0  0
 21 27  1  0  0  0  0
 22 44  1  0  0  0  0
 22 45  1  0  0  0  0
 22 46  1  0  0  0  0
 24 47  1  0  0  0  0
 24 48  1  0  0  0  0
 24 49  1  0  0  0  0
 25 50  1  0  0  0  0
 25 51  1  0  0  0  0
 25 52  1  0  0  0  0
 26 28  2  0  0  0  0
 26 54  1  0  0  0  0
 27 29  2  0  0  0  0
 27 55  1  0  0  0  0
 28 29  1  0  0  0  0
 29 56  1  0  0  0  0
M  END
> <PUBCHEM_COMPOUND_CID>
5329102

> <PUBCHEM_COMPOUND_CANONICALIZED>
1

> <PUBCHEM_CACTVS_COMPLEXITY>
636

> <PUBCHEM_CACTVS_HBOND_ACCEPTOR>
4

> <PUBCHEM_CACTVS_HBOND_DONOR>
3

> <PUBCHEM_CACTVS_ROTATABLE_BOND>
7

> <PUBCHEM_CACTVS_SUBSKEYS>
AAADceB7sQAAAAAAAAAAAAAAAAAAAWLAAAAwAAAAAAAAAFgBwAAAHwAQAAAADAjBngwywJPJkACoAyVyVACCgCAlAiAImaE4ZNgIYHrA1ZGUIYhglgDIyccciICOgAAAAAACAAAAAAAAAAQAAAAAAAAAAA==

> <PUBCHEM_IUPAC_OPENEYE_NAME>
N-[2-(diethylamino)ethyl]-5-[(Z)-(5-fluoro-2-oxo-indolin-3-ylidene)methyl]-2,4-dimethyl-1H-pyrrole-3-carboxamide

> <PUBCHEM_IUPAC_CAS_NAME>
N-[2-(diethylamino)ethyl]-5-[(Z)-(5-fluoro-2-oxo-1H-indol-3-ylidene)methyl]-2,4-dimethyl-1H-pyrrole-3-carboxamide

> <PUBCHEM_IUPAC_NAME_MARKUP>
<I>N</I>-[2-(diethylamino)ethyl]-5-[(<I>Z</I>)-(5-fluoro-2-oxo-1<I>H</I>-indol-3-ylidene)methyl]-2,4-dimethyl-1<I>H</I>-pyrrole-3-carboxamide

> <PUBCHEM_IUPAC_NAME>
N-[2-(diethylamino)ethyl]-5-[(Z)-(5-fluoro-2-oxo-1H-indol-3-ylidene)methyl]-2,4-dimethyl-1H-pyrrole-3-carboxamide

> <PUBCHEM_IUPAC_SYSTEMATIC_NAME>
N-[2-(diethylamino)ethyl]-5-[(Z)-(5-fluoranyl-2-oxidanylidene-1H-indol-3-ylidene)methyl]-2,4-dimethyl-1H-pyrrole-3-carboxamide

> <PUBCHEM_IUPAC_TRADITIONAL_NAME>
N-[2-(diethylamino)ethyl]-5-[(Z)-(5-fluoro-2-keto-indolin-3-ylidene)methyl]-2,4-dimethyl-1H-pyrrole-3-carboxamide

> <PUBCHEM_IUPAC_INCHI>
InChI=1S/C22H27FN4O2/c1-5-27(6-2)10-9-24-22(29)20-13(3)19(25-14(20)4)12-17-16-11-15(23)7-8-18(16)26-21(17)28/h7-8,11-12,25H,5-6,9-10H2,1-4H3,(H,24,29)(H,26,28)/b17-12-

> <PUBCHEM_IUPAC_INCHIKEY>
WINHZLLDWRZWRT-ATVHPVEESA-N

> <PUBCHEM_XLOGP3_AA>
2.6

> <PUBCHEM_EXACT_MASS>
398.21180428

> <PUBCHEM_MOLECULAR_FORMULA>
C22H27FN4O2

> <PUBCHEM_MOLECULAR_WEIGHT>
398.5

> <PUBCHEM_OPENEYE_CAN_SMILES>
CCN(CC)CCNC(=O)C1=C(NC(=C1C)C=C2C3=C(C=CC(=C3)F)NC2=O)C

> <PUBCHEM_OPENEYE_ISO_SMILES>
CCN(CC)CCNC(=O)C1=C(NC(=C1C)/C=C\2/C3=C(C=CC(=C3)F)NC2=O)C

> <PUBCHEM_CACTVS_TPSA>
77.2

> <PUBCHEM_MONOISOTOPIC_WEIGHT>
398.21180428

> <PUBCHEM_TOTAL_CHARGE>
0

> <PUBCHEM_HEAVY_ATOM_COUNT>
29

> <PUBCHEM_ATOM_DEF_STEREO_COUNT>
0

> <PUBCHEM_ATOM_UDEF_STEREO_COUNT>
0

> <PUBCHEM_BOND_DEF_STEREO_COUNT>
1

> <PUBCHEM_BOND_UDEF_STEREO_COUNT>
0

> <PUBCHEM_ISOTOPIC_ATOM_COUNT>
0

> <PUBCHEM_COMPONENT_COUNT>
1

> <PUBCHEM_CACTVS_TAUTO_COUNT>
-1

> <PUBCHEM_COORDINATE_TYPE>
1
5
255

> <PUBCHEM_BONDANNOTATIONS>
10  11  8
19  21  8
19  26  8
21  27  8
26  28  8
27  29  8
28  29  8
5  11  8
5  13  8
9  10  8
9  13  8

$$$$
5291
  -OEChem-11282412102D

 68 72  0     0  0  0  0  0  0999 V2000
    7.1962   -0.5000    0.0000 O   0  0  0  0  0  0  0  0  0  0  0  0
    2.8660   -3.0000    0.0000 N   0  0  0  0  0  0  0  0  0  0  0  0
    2.8660   -5.0000    0.0000 N   0  0  0  0  0  0  0  0  0  0  0  0
    6.3301    1.0000    0.0000 N   0  0  0  0  0  0  0  0  0  0  0  0
    8.0622    4.0000    0.0000 N   0  0  0  0  0  0  0  0  0  0  0  0
    6.3301    4.0000    0.0000 N   0  0  0  0  0  0  0  0  0  0  0  0
    7.1962    5.5000    0.0000 N   0  0  0  0  0  0  0  0  0  0  0  0
    2.8660    4.0000    0.0000 N   0  0  0  0  0  0  0  0  0  0  0  0
    2.0000   -3.5000    0.0000 C   0  0  0  0  0  0  0  0  0  0  0  0
    3.7320   -3.5000    0.0000 C   0  0  0  0  0  0  0  0  0  0  0  0
    2.0000   -4.5000    0.0000 C   0  0  0  0  0  0  0  0  0  0  0  0
    3.7320   -4.5000    0.0000 C   0  0  0  0  0  0  0  0  0  0  0  0
    2.8660   -2.0000    0.0000 C   0  0  0  0  0  0  0  0  0  0  0  0
    2.8660   -6.0000    0.0000 C   0  0  0  0  0  0  0  0  0  0  0  0
    3.7320   -1.5000    0.0000 C   0  0  0  0  0  0  0  0  0  0  0  0
    3.7320   -0.5000    0.0000 C   0  0  0  0  0  0  0  0  0  0  0  0
    4.5981   -2.0000    0.0000 C   0  0  0  0  0  0  0  0  0  0  0  0
    4.5981    0.0000    0.0000 C   0  0  0  0  0  0  0  0  0  0  0  0
    5.4641   -1.5000    0.0000 C   0  0  0  0  0  0  0  0  0  0  0  0
    5.4641   -0.5000    0.0000 C   0  0  0  0  0  0  0  0  0  0  0  0
    6.3301   -0.0000    0.0000 C   0  0  0  0  0  0  0  0  0  0  0  0
    7.1962    1.5000    0.0000 C   0  0  0  0  0  0  0  0  0  0  0  0
    8.0622    3.0000    0.0000 C   0  0  0  0  0  0  0  0  0  0  0  0
    7.1962    2.5000    0.0000 C   0  0  0  0  0  0  0  0  0  0  0  0
    8.9282    2.5000    0.0000 C   0  0  0  0  0  0  0  0  0  0  0  0
    8.0622    1.0000    0.0000 C   0  0  0  0  0  0  0  0  0  0  0  0
    8.9282    1.5000    0.0000 C   0  0  0  0  0  0  0  0  0  0  0  0
    9.7942    3.0000    0.0000 C   0  0  0  0  0  0  0  0  0  0  0  0
    7.1962    4.5000    0.0000 C   0  0  0  0  0  0  0  0  0  0  0  0
    5.4641    4.5000    0.0000 C   0  0  0  0  0  0  0  0  0  0  0  0
    4.5981    4.0000    0.0000 C   0  0  0  0  0  0  0  0  0  0  0  0
    5.4641    5.5000    0.0000 C   0  0  0  0  0  0  0  0  0  0  0  0
    6.3301    6.0000    0.0000 C   0  0  0  0  0  0  0  0  0  0  0  0
    4.5981    3.0000    0.0000 C   0  0  0  0  0  0  0  0  0  0  0  0
    3.7320    4.5000    0.0000 C   0  0  0  0  0  0  0  0  0  0  0  0
    3.7320    2.5000    0.0000 C   0  0  0  0  0  0  0  0  0  0  0  0
    2.8660    3.0000    0.0000 C   0  0  0  0  0  0  0  0  0  0  0  0
    1.7880   -2.9174    0.0000 H   0  0  0  0  0  0  0  0  0  0  0  0
    1.3894   -3.6077    0.0000 H   0  0  0  0  0  0  0  0  0  0  0  0
    4.3426   -3.6077    0.0000 H   0  0  0  0  0  0  0  0  0  0  0  0
    3.9441   -2.9174    0.0000 H   0  0  0  0  0  0  0  0  0  0  0  0
    1.3894   -4.3923    0.0000 H   0  0  0  0  0  0  0  0  0  0  0  0
    1.7880   -5.0826    0.0000 H   0  0  0  0  0  0  0  0  0  0  0  0
    3.9441   -5.0826    0.0000 H   0  0  0  0  0  0  0  0  0  0  0  0
    4.3426   -4.3923    0.0000 H   0  0  0  0  0  0  0  0  0  0  0  0
    2.6540   -1.4174    0.0000 H   0  0  0  0  0  0  0  0  0  0  0  0
    2.2554   -2.1077    0.0000 H   0  0  0  0  0  0  0  0  0  0  0  0
    2.2460   -6.0000    0.0000 H   0  0  0  0  0  0  0  0  0  0  0  0
    2.8660   -6.6200    0.0000 H   0  0  0  0  0  0  0  0  0  0  0  0
    3.4860   -6.0000    0.0000 H   0  0  0  0  0  0  0  0  0  0  0  0
    3.1951   -0.1900    0.0000 H   0  0  0  0  0  0  0  0  0  0  0  0
    4.5981   -2.6200    0.0000 H   0  0  0  0  0  0  0  0  0  0  0  0
    4.5981    0.6200    0.0000 H   0  0  0  0  0  0  0  0  0  0  0  0
    6.0010   -1.8100    0.0000 H   0  0  0  0  0  0  0  0  0  0  0  0
    5.7932    1.3100    0.0000 H   0  0  0  0  0  0  0  0  0  0  0  0
    6.6592    2.8100    0.0000 H   0  0  0  0  0  0  0  0  0  0  0  0
    8.0622    0.3800    0.0000 H   0  0  0  0  0  0  0  0  0  0  0  0
    9.4651    1.1900    0.0000 H   0  0  0  0  0  0  0  0  0  0  0  0
    8.5991    4.3100    0.0000 H   0  0  0  0  0  0  0  0  0  0  0  0
   10.1042    2.4631    0.0000 H   0  0  0  0  0  0  0  0  0  0  0  0
   10.3312    3.3100    0.0000 H   0  0  0  0  0  0  0  0  0  0  0  0
    9.4842    3.5369    0.0000 H   0  0  0  0  0  0  0  0  0  0  0  0
    4.9272    5.8100    0.0000 H   0  0  0  0  0  0  0  0  0  0  0  0
    6.3301    6.6200    0.0000 H   0  0  0  0  0  0  0  0  0  0  0  0
    5.1350    2.6900    0.0000 H   0  0  0  0  0  0  0  0  0  0  0  0
    3.7320    5.1200    0.0000 H   0  0  0  0  0  0  0  0  0  0  0  0
    3.7320    1.8800    0.0000 H   0  0  0  0  0  0  0  0  0  0  0  0
    2.3291    2.6900    0.0000 H   0  0  0  0  0  0  0  0  0  0  0  0
  1 21  2  0  0  0  0
  2  9  1  0  0  0  0
  2 10  1  0  0  0  0
  2 13  1  0  0  0  0
  3 11  1  0  0  0  0
  3 12  1  0  0  0  0
  3 14  1  0  0  0  0
  4 21  1  0  0  0  0
  4 22  1  0  0  0  0
  4 55  1  0  0  0  0
  5 23  1  0  0  0  0
  5 29  1  0  0  0  0
  5 59  1  0  0  0  0
  6 29  1  0  0  0  0
  6 30  2  0  0  0  0
  7 29  2  0  0  0  0
  7 33  1  0  0  0  0
  8 35  1  0  0  0  0
  8 37  2  0  0  0  0
  9 11  1  0  0  0  0
  9 38  1  0  0  0  0
  9 39  1  0  0  0  0
 10 12  1  0  0  0  0
 10 40  1  0  0  0  0
 10 41  1  0  0  0  0
 11 42  1  0  0  0  0
 11 43  1  0  0  0  0
 12 44  1  0  0  0  0
 12 45  1  0  0  0  0
 13 15  1  0  0  0  0
 13 46  1  0  0  0  0
 13 47  1  0  0  0  0
 14 48  1  0  0  0  0
 14 49  1  0  0  0  0
 14 50  1  0  0  0  0
 15 16  2  0  0  0  0
 15 17  1  0  0  0  0
 16 18  1  0  0  0  0
 16 51  1  0  0  0  0
 17 19  2  0  0  0  0
 17 52  1  0  0  0  0
 18 20  2  0  0  0  0
 18 53  1  0  0  0  0
 19 20  1  0  0  0  0
 19 54  1  0  0  0  0
 20 21  1  0  0  0  0
 22 24  2  0  0  0  0
 22 26  1  0  0  0  0
 23 24  1  0  0  0  0
 23 25  2  0  0  0  0
 24 56  1  0  0  0  0
 25 27  1  0  0  0  0
 25 28  1  0  0  0  0
 26 27  2  0  0  0  0
 26 57  1  0  0  0  0
 27 58  1  0  0  0  0
 28 60  1  0  0  0  0
 28 61  1  0  0  0  0
 28 62  1  0  0  0  0
 30 31  1  0  0  0  0
 30 32  1  0  0  0  0
 31 34  1  0  0  0  0
 31 35  2  0  0  0  0
 32 33  2  0  0  0  0
 32 63  1  0  0  0  0
 33 64  1  0  0  0  0
 34 36  2  0  0  0  0
 34 65  1  0  0  0  0
 35 66  1  0  0  0  0
 36 37  1  0  0  0  0
 36 67  1  0  0  0  0
 37 68  1  0  0  0  0
M  END
> <PUBCHEM_COMPOUND_CID>
5291

> <PUBCHEM_COMPOUND_CANONICALIZED>
1

> <PUBCHEM_CACTVS_COMPLEXITY>
706

> <PUBCHEM_CACTVS_HBOND_ACCEPTOR>
7

> <PUBCHEM_CACTVS_HBOND_DONOR>
2

> <PUBCHEM_CACTVS_ROTATABLE_BOND>
7

> <PUBCHEM_CACTVS_SUBSKEYS>
AAADceB7oAAAAAAAAAAAAAAAAAAAAAAAAAA8eLECAAAAAAAB9AAAHgAQAAAADAjBngQ/0JfIEACoAzV3dACCgCk1AqAJ2CE4ZNiIaPLA3dGUJQholALIyacYiACOSAAAAAQCAACQAAAACAQAAAAAAAAAAA==

> <PUBCHEM_IUPAC_OPENEYE_NAME>
4-[(4-methylpiperazin-1-yl)methyl]-N-[4-methyl-3-[[4-(3-pyridyl)pyrimidin-2-yl]amino]phenyl]benzamide

> <PUBCHEM_IUPAC_CAS_NAME>
4-[(4-methyl-1-piperazinyl)methyl]-N-[4-methyl-3-[[4-(3-pyridinyl)-2-pyrimidinyl]amino]phenyl]benzamide

> <PUBCHEM_IUPAC_NAME_MARKUP>
4-[(4-methylpiperazin-1-yl)methyl]-<I>N</I>-[4-methyl-3-[(4-pyridin-3-ylpyrimidin-2-yl)amino]phenyl]benzamide

> <PUBCHEM_IUPAC_NAME>
4-[(4-methylpiperazin-1-yl)methyl]-N-[4-methyl-3-[(4-pyridin-3-ylpyrimidin-2-yl)amino]phenyl]benzamide

> <PUBCHEM_IUPAC_SYSTEMATIC_NAME>
4-[(4-methylpiperazin-1-yl)methyl]-N-[4-methyl-3-[(4-pyridin-3-ylpyrimidin-2-yl)amino]phenyl]benzamide

> <PUBCHEM_IUPAC_TRADITIONAL_NAME>
4-[(4-methylpiperazino)methyl]-N-[4-methyl-3-[[4-(3-pyridyl)pyrimidin-2-yl]amino]phenyl]benzamide

> <PUBCHEM_IUPAC_INCHI>
InChI=1S/C29H31N7O/c1-21-5-10-25(18-27(21)34-29-31-13-11-26(33-29)24-4-3-12-30-19-24)32-28(37)23-8-6-22(7-9-23)20-36-16-14-35(2)15-17-36/h3-13,18-19H,14-17,20H2,1-2H3,(H,32,37)(H,31,33,34)

> <PUBCHEM_IUPAC_INCHIKEY>
KTUFNOKKBVMGRW-UHFFFAOYSA-N

> <PUBCHEM_XLOGP3_AA>
3.5

> <PUBCHEM_EXACT_MASS>
493.25900864

> <PUBCHEM_MOLECULAR_FORMULA>
C29H31N7O

> <PUBCHEM_MOLECULAR_WEIGHT>
493.6

> <PUBCHEM_OPENEYE_CAN_SMILES>
CC1=C(C=C(C=C1)NC(=O)C2=CC=C(C=C2)CN3CCN(CC3)C)NC4=NC=CC(=N4)C5=CN=CC=C5

> <PUBCHEM_OPENEYE_ISO_SMILES>
CC1=C(C=C(C=C1)NC(=O)C2=CC=C(C=C2)CN3CCN(CC3)C)NC4=NC=CC(=N4)C5=CN=CC=C5

> <PUBCHEM_CACTVS_TPSA>
86.3

> <PUBCHEM_MONOISOTOPIC_WEIGHT>
493.25900864

> <PUBCHEM_TOTAL_CHARGE>
0

> <PUBCHEM_HEAVY_ATOM_COUNT>
37

> <PUBCHEM_ATOM_DEF_STEREO_COUNT>
0

> <PUBCHEM_ATOM_UDEF_STEREO_COUNT>
0

> <PUBCHEM_BOND_DEF_STEREO_COUNT>
0

> <PUBCHEM_BOND_UDEF_STEREO_COUNT>
0

> <PUBCHEM_ISOTOPIC_ATOM_COUNT>
0

> <PUBCHEM_COMPONENT_COUNT>
1

> <PUBCHEM_CACTVS_TAUTO_COUNT>
-1

> <PUBCHEM_COORDINATE_TYPE>
1
5
255

> <PUBCHEM_BONDANNOTATIONS>
15  16  8
15  17  8
16  18  8
17  19  8
18  20  8
19  20  8
22  24  8
22  26  8
23  24  8
23  25  8
25  27  8
26  27  8
30  32  8
31  34  8
31  35  8
32  33  8
34  36  8
36  37  8
6  29  8
6  30  8
7  29  8
7  33  8
8  35  8
8  37  8

$$$$
10184653
  -OEChem-11282412102D

 59 62  0     1  0  0  0  0  0999 V2000
   11.5424   -1.0941    0.0000 Cl  0  0  0  0  0  0  0  0  0  0  0  0
   11.5193   -3.0939    0.0000 F   0  0  0  0  0  0  0  0  0  0  0  0
    4.0981    4.5194    0.0000 O   0  0  0  0  0  0  0  0  0  0  0  0
    4.5981    1.9806    0.0000 O   0  0  0  0  0  0  0  0  0  0  0  0
    5.4641   -1.5194    0.0000 O   0  0  0  0  0  0  0  0  0  0  0  0
    4.5981   -0.0194    0.0000 N   0  0  0  0  0  0  0  0  0  0  0  0
    8.0901    2.0152    0.0000 N   0  0  0  0  0  0  0  0  0  0  0  0
    8.0785   -1.0540    0.0000 N   0  0  0  0  0  0  0  0  0  0  0  0
    8.9962    0.4598    0.0000 N   0  0  0  0  0  0  0  0  0  0  0  0
    2.8660   -4.0194    0.0000 N   0  0  0  0  0  0  0  0  0  0  0  0
    4.5981    2.9806    0.0000 C   0  0  1  0  0  0  0  0  0  0  0  0
    5.4071    3.5684    0.0000 C   0  0  0  0  0  0  0  0  0  0  0  0
    3.7891    3.5684    0.0000 C   0  0  0  0  0  0  0  0  0  0  0  0
    5.0981    4.5194    0.0000 C   0  0  0  0  0  0  0  0  0  0  0  0
    5.4641    1.4806    0.0000 C   0  0  0  0  0  0  0  0  0  0  0  0
    5.4641    0.4806    0.0000 C   0  0  0  0  0  0  0  0  0  0  0  0
    6.3301    1.9806    0.0000 C   0  0  0  0  0  0  0  0  0  0  0  0
    7.1962    0.4806    0.0000 C   0  0  0  0  0  0  0  0  0  0  0  0
    7.1962    1.4806    0.0000 C   0  0  0  0  0  0  0  0  0  0  0  0
    6.3301   -0.0194    0.0000 C   0  0  0  0  0  0  0  0  0  0  0  0
    8.0901   -0.0541    0.0000 C   0  0  0  0  0  0  0  0  0  0  0  0
    4.5981   -1.0194    0.0000 C   0  0  0  0  0  0  0  0  0  0  0  0
    8.9962    1.5014    0.0000 C   0  0  0  0  0  0  0  0  0  0  0  0
    8.9387   -1.5640    0.0000 C   0  0  0  0  0  0  0  0  0  0  0  0
    3.7320   -1.5194    0.0000 C   0  0  0  0  0  0  0  0  0  0  0  0
    2.8660   -3.0194    0.0000 C   0  0  0  0  0  0  0  0  0  0  0  0
    3.7320   -2.5194    0.0000 C   0  0  0  0  0  0  0  0  0  0  0  0
    9.8105   -1.0740    0.0000 C   0  0  0  0  0  0  0  0  0  0  0  0
    8.9271   -2.5639    0.0000 C   0  0  0  0  0  0  0  0  0  0  0  0
   10.6707   -1.5840    0.0000 C   0  0  0  0  0  0  0  0  0  0  0  0
    9.7873   -3.0739    0.0000 C   0  0  0  0  0  0  0  0  0  0  0  0
    2.0000   -4.5194    0.0000 C   0  0  0  0  0  0  0  0  0  0  0  0
    3.7320   -4.5194    0.0000 C   0  0  0  0  0  0  0  0  0  0  0  0
   10.6591   -2.5840    0.0000 C   0  0  0  0  0  0  0  0  0  0  0  0
    5.1505    2.6991    0.0000 H   0  0  0  0  0  0  0  0  0  0  0  0
    5.7171    3.0314    0.0000 H   0  0  0  0  0  0  0  0  0  0  0  0
    5.9735    3.8205    0.0000 H   0  0  0  0  0  0  0  0  0  0  0  0
    3.2227    3.8205    0.0000 H   0  0  0  0  0  0  0  0  0  0  0  0
    3.4791    3.0314    0.0000 H   0  0  0  0  0  0  0  0  0  0  0  0
    5.7045    4.6483    0.0000 H   0  0  0  0  0  0  0  0  0  0  0  0
    5.0333    5.1360    0.0000 H   0  0  0  0  0  0  0  0  0  0  0  0
    6.3301    2.6006    0.0000 H   0  0  0  0  0  0  0  0  0  0  0  0
    6.3301   -0.6394    0.0000 H   0  0  0  0  0  0  0  0  0  0  0  0
    4.0611    0.2906    0.0000 H   0  0  0  0  0  0  0  0  0  0  0  0
    7.5380   -1.3578    0.0000 H   0  0  0  0  0  0  0  0  0  0  0  0
    9.5319    1.8135    0.0000 H   0  0  0  0  0  0  0  0  0  0  0  0
    3.1951   -1.2094    0.0000 H   0  0  0  0  0  0  0  0  0  0  0  0
    2.6540   -2.4368    0.0000 H   0  0  0  0  0  0  0  0  0  0  0  0
    2.2554   -3.1271    0.0000 H   0  0  0  0  0  0  0  0  0  0  0  0
    4.2690   -2.8294    0.0000 H   0  0  0  0  0  0  0  0  0  0  0  0
    9.8176   -0.4541    0.0000 H   0  0  0  0  0  0  0  0  0  0  0  0
    8.3867   -2.8677    0.0000 H   0  0  0  0  0  0  0  0  0  0  0  0
    9.7802   -3.6939    0.0000 H   0  0  0  0  0  0  0  0  0  0  0  0
    1.6900   -3.9825    0.0000 H   0  0  0  0  0  0  0  0  0  0  0  0
    1.4631   -4.8294    0.0000 H   0  0  0  0  0  0  0  0  0  0  0  0
    2.3100   -5.0564    0.0000 H   0  0  0  0  0  0  0  0  0  0  0  0
    3.4220   -5.0564    0.0000 H   0  0  0  0  0  0  0  0  0  0  0  0
    4.2690   -4.8294    0.0000 H   0  0  0  0  0  0  0  0  0  0  0  0
    4.0420   -3.9825    0.0000 H   0  0  0  0  0  0  0  0  0  0  0  0
  1 30  1  0  0  0  0
  2 34  1  0  0  0  0
  3 13  1  0  0  0  0
  3 14  1  0  0  0  0
 11  4  1  6  0  0  0
  4 15  1  0  0  0  0
  5 22  2  0  0  0  0
  6 16  1  0  0  0  0
  6 22  1  0  0  0  0
  6 44  1  0  0  0  0
  7 19  1  0  0  0  0
  7 23  2  0  0  0  0
  8 21  1  0  0  0  0
  8 24  1  0  0  0  0
  8 45  1  0  0  0  0
  9 21  2  0  0  0  0
  9 23  1  0  0  0  0
 10 26  1  0  0  0  0
 10 32  1  0  0  0  0
 10 33  1  0  0  0  0
 11 12  1  0  0  0  0
 11 13  1  0  0  0  0
 11 35  1  0  0  0  0
 12 14  1  0  0  0  0
 12 36  1  0  0  0  0
 12 37  1  0  0  0  0
 13 38  1  0  0  0  0
 13 39  1  0  0  0  0
 14 40  1  0  0  0  0
 14 41  1  0  0  0  0
 15 16  2  0  0  0  0
 15 17  1  0  0  0  0
 16 20  1  0  0  0  0
 17 19  2  0  0  0  0
 17 42  1  0  0  0  0
 18 19  1  0  0  0  0
 18 20  2  0  0  0  0
 18 21  1  0  0  0  0
 20 43  1  0  0  0  0
 22 25  1  0  0  0  0
 23 46  1  0  0  0  0
 24 28  2  0  0  0  0
 24 29  1  0  0  0  0
 25 27  2  0  0  0  0
 25 47  1  0  0  0  0
 26 27  1  0  0  0  0
 26 48  1  0  0  0  0
 26 49  1  0  0  0  0
 27 50  1  0  0  0  0
 28 30  1  0  0  0  0
 28 51  1  0  0  0  0
 29 31  2  0  0  0  0
 29 52  1  0  0  0  0
 30 34  2  0  0  0  0
 31 34  1  0  0  0  0
 31 53  1  0  0  0  0
 32 54  1  0  0  0  0
 32 55  1  0  0  0  0
 32 56  1  0  0  0  0
 33 57  1  0  0  0  0
 33 58  1  0  0  0  0
 33 59  1  0  0  0  0
M  END
> <PUBCHEM_COMPOUND_CID>
10184653

> <PUBCHEM_COMPOUND_CANONICALIZED>
1

> <PUBCHEM_CACTVS_COMPLEXITY>
702

> <PUBCHEM_CACTVS_HBOND_ACCEPTOR>
8

> <PUBCHEM_CACTVS_HBOND_DONOR>
2

> <PUBCHEM_CACTVS_ROTATABLE_BOND>
8

> <PUBCHEM_CACTVS_SUBSKEYS>
AAADceB7sQAEAAAAAAAAAAAAAAAAASAAAAA8YIAAAAAAAACx9AAAHwIQAAAADB7hni439vfIFACoAydzdACCiCkxJ6AJ2CA/btiPLuLF+9uHPCjv1Bva6aeQ0AMOIACAQgICEABAAQCEBAQgAAAAAAAAAA==

> <PUBCHEM_IUPAC_OPENEYE_NAME>
(E)-N-[4-(3-chloro-4-fluoro-anilino)-7-[(3S)-tetrahydrofuran-3-yl]oxy-quinazolin-6-yl]-4-(dimethylamino)but-2-enamide

> <PUBCHEM_IUPAC_CAS_NAME>
(E)-N-[4-(3-chloro-4-fluoroanilino)-7-[[(3S)-3-oxolanyl]oxy]-6-quinazolinyl]-4-(dimethylamino)-2-butenamide

> <PUBCHEM_IUPAC_NAME_MARKUP>
(<I>E</I>)-<I>N</I>-[4-(3-chloro-4-fluoroanilino)-7-[(3<I>S</I>)-oxolan-3-yl]oxyquinazolin-6-yl]-4-(dimethylamino)but-2-enamide

> <PUBCHEM_IUPAC_NAME>
(E)-N-[4-(3-chloro-4-fluoroanilino)-7-[(3S)-oxolan-3-yl]oxyquinazolin-6-yl]-4-(dimethylamino)but-2-enamide

> <PUBCHEM_IUPAC_SYSTEMATIC_NAME>
(E)-N-[4-[(3-chloranyl-4-fluoranyl-phenyl)amino]-7-[(3S)-oxolan-3-yl]oxy-quinazolin-6-yl]-4-(dimethylamino)but-2-enamide

> <PUBCHEM_IUPAC_TRADITIONAL_NAME>
(E)-N-[4-(3-chloro-4-fluoro-anilino)-7-[(3S)-tetrahydrofuran-3-yl]oxy-quinazolin-6-yl]-4-(dimethylamino)but-2-enamide

> <PUBCHEM_IUPAC_INCHI>
InChI=1S/C24H25ClFN5O3/c1-31(2)8-3-4-23(32)30-21-11-17-20(12-22(21)34-16-7-9-33-13-16)27-14-28-24(17)29-15-5-6-19(26)18(25)10-15/h3-6,10-12,14,16H,7-9,13H2,1-2H3,(H,30,32)(H,27,28,29)/b4-3+/t16-/m0/s1

> <PUBCHEM_IUPAC_INCHIKEY>
ULXXDDBFHOBEHA-CWDCEQMOSA-N

> <PUBCHEM_XLOGP3_AA>
3.6

> <PUBCHEM_EXACT_MASS>
485.1629955

> <PUBCHEM_MOLECULAR_FORMULA>
C24H25ClFN5O3

> <PUBCHEM_MOLECULAR_WEIGHT>
485.9

> <PUBCHEM_OPENEYE_CAN_SMILES>
CN(C)CC=CC(=O)NC1=C(C=C2C(=C1)C(=NC=N2)NC3=CC(=C(C=C3)F)Cl)OC4CCOC4

> <PUBCHEM_OPENEYE_ISO_SMILES>
CN(C)C/C=C/C(=O)NC1=C(C=C2C(=C1)C(=NC=N2)NC3=CC(=C(C=C3)F)Cl)O[C@H]4CCOC4

> <PUBCHEM_CACTVS_TPSA>
88.6

> <PUBCHEM_MONOISOTOPIC_WEIGHT>
485.1629955

> <PUBCHEM_TOTAL_CHARGE>
0

> <PUBCHEM_HEAVY_ATOM_COUNT>
34

> <PUBCHEM_ATOM_DEF_STEREO_COUNT>
1

> <PUBCHEM_ATOM_UDEF_STEREO_COUNT>
0

> <PUBCHEM_BOND_DEF_STEREO_COUNT>
1

> <PUBCHEM_BOND_UDEF_STEREO_COUNT>
0

> <PUBCHEM_ISOTOPIC_ATOM_COUNT>
0

> <PUBCHEM_COMPONENT_COUNT>
1

> <PUBCHEM_CACTVS_TAUTO_COUNT>
-1

> <PUBCHEM_COORDINATE_TYPE>
1
5
255

> <PUBCHEM_BONDANNOTATIONS>
15  16  8
15  17  8
16  20  8
17  19  8
18  19  8
18  20  8
18  21  8
24  28  8
24  29  8
28  30  8
29  31  8
30  34  8
31  34  8
11  4  6
7  19  8
7  23  8
9  21  8
9  23  8

$$$$
71496458
  -OEChem-11282412102D

 70 73  0     1  0  0  0  0  0999 V2000
    5.9209    0.3295    0.0000 O   0  0  0  0  0  0  0  0  0  0  0  0
   10.1921   -0.5405    0.0000 O   0  0  0  0  0  0  0  0  0  0  0  0
    8.4993    2.6430    0.0000 N   0  0  3  0  0  0  0  0  0  0  0  0
    4.6783   -5.0821    0.0000 N   0  0  0  0  0  0  0  0  0  0  0  0
    7.4742    5.0821    0.0000 N   0  0  0  0  0  0  0  0  0  0  0  0
    7.2566   -1.1591    0.0000 N   0  0  0  0  0  0  0  0  0  0  0  0
    9.8349    1.1544    0.0000 N   0  0  0  0  0  0  0  0  0  0  0  0
    5.9674   -2.3159    0.0000 N   0  0  0  0  0  0  0  0  0  0  0  0
    5.6103   -0.6210    0.0000 N   0  0  0  0  0  0  0  0  0  0  0  0
    7.8314    3.3872    0.0000 C   0  0  0  0  0  0  0  0  0  0  0  0
    8.1886    1.6924    0.0000 C   0  0  0  0  0  0  0  0  0  0  0  0
    8.1421    4.3378    0.0000 C   0  0  0  0  0  0  0  0  0  0  0  0
    3.7320   -3.7773    0.0000 C   0  0  0  0  0  0  0  0  0  0  0  0
    3.7320   -4.7773    0.0000 C   0  0  0  0  0  0  0  0  0  0  0  0
    4.6783   -3.4726    0.0000 C   0  0  0  0  0  0  0  0  0  0  0  0
    8.8564    0.9481    0.0000 C   0  0  0  0  0  0  0  0  0  0  0  0
    7.2101    1.4862    0.0000 C   0  0  0  0  0  0  0  0  0  0  0  0
    5.2619   -4.2773    0.0000 C   0  0  0  0  0  0  0  0  0  0  0  0
    7.5673   -0.2086    0.0000 C   0  0  0  0  0  0  0  0  0  0  0  0
    9.4778    2.8492    0.0000 C   0  0  0  0  0  0  0  0  0  0  0  0
    6.8994    0.5357    0.0000 C   0  0  0  0  0  0  0  0  0  0  0  0
    8.5458   -0.0024    0.0000 C   0  0  0  0  0  0  0  0  0  0  0  0
    4.9889   -2.5221    0.0000 C   0  0  0  0  0  0  0  0  0  0  0  0
    2.8660   -3.2773    0.0000 C   0  0  0  0  0  0  0  0  0  0  0  0
    2.8660   -5.2773    0.0000 C   0  0  0  0  0  0  0  0  0  0  0  0
    4.9889   -6.0326    0.0000 C   0  0  0  0  0  0  0  0  0  0  0  0
    7.7849    6.0326    0.0000 C   0  0  0  0  0  0  0  0  0  0  0  0
    6.4957    4.8758    0.0000 C   0  0  0  0  0  0  0  0  0  0  0  0
    6.2781   -1.3654    0.0000 C   0  0  0  0  0  0  0  0  0  0  0  0
    2.0000   -3.7773    0.0000 C   0  0  0  0  0  0  0  0  0  0  0  0
    2.0000   -4.7773    0.0000 C   0  0  0  0  0  0  0  0  0  0  0  0
    4.3211   -1.7778    0.0000 C   0  0  0  0  0  0  0  0  0  0  0  0
    4.6318   -0.8273    0.0000 C   0  0  0  0  0  0  0  0  0  0  0  0
   10.5028    0.4100    0.0000 C   0  0  0  0  0  0  0  0  0  0  0  0
    5.2531    1.0738    0.0000 C   0  0  0  0  0  0  0  0  0  0  0  0
   11.4813    0.6163    0.0000 C   0  0  0  0  0  0  0  0  0  0  0  0
   12.1491   -0.1280    0.0000 C   0  0  0  0  0  0  0  0  0  0  0  0
    7.2845    3.6793    0.0000 H   0  0  0  0  0  0  0  0  0  0  0  0
    7.4489    2.8994    0.0000 H   0  0  0  0  0  0  0  0  0  0  0  0
    8.6890    4.0458    0.0000 H   0  0  0  0  0  0  0  0  0  0  0  0
    8.5246    4.8257    0.0000 H   0  0  0  0  0  0  0  0  0  0  0  0
    6.7960    1.9477    0.0000 H   0  0  0  0  0  0  0  0  0  0  0  0
    5.8819   -4.2773    0.0000 H   0  0  0  0  0  0  0  0  0  0  0  0
    9.6056    2.2425    0.0000 H   0  0  0  0  0  0  0  0  0  0  0  0
   10.0844    2.9770    0.0000 H   0  0  0  0  0  0  0  0  0  0  0  0
    9.3499    3.4558    0.0000 H   0  0  0  0  0  0  0  0  0  0  0  0
    8.9598   -0.4639    0.0000 H   0  0  0  0  0  0  0  0  0  0  0  0
    2.8660   -2.6573    0.0000 H   0  0  0  0  0  0  0  0  0  0  0  0
    2.8660   -5.8973    0.0000 H   0  0  0  0  0  0  0  0  0  0  0  0
    4.3996   -6.2252    0.0000 H   0  0  0  0  0  0  0  0  0  0  0  0
    5.1815   -6.6219    0.0000 H   0  0  0  0  0  0  0  0  0  0  0  0
    5.5783   -5.8400    0.0000 H   0  0  0  0  0  0  0  0  0  0  0  0
    7.6707   -1.6206    0.0000 H   0  0  0  0  0  0  0  0  0  0  0  0
   10.0276    1.7437    0.0000 H   0  0  0  0  0  0  0  0  0  0  0  0
    8.3742    5.8400    0.0000 H   0  0  0  0  0  0  0  0  0  0  0  0
    7.9775    6.6219    0.0000 H   0  0  0  0  0  0  0  0  0  0  0  0
    7.1956    6.2252    0.0000 H   0  0  0  0  0  0  0  0  0  0  0  0
    6.3679    5.4825    0.0000 H   0  0  0  0  0  0  0  0  0  0  0  0
    5.8890    4.7480    0.0000 H   0  0  0  0  0  0  0  0  0  0  0  0
    6.6236    4.2692    0.0000 H   0  0  0  0  0  0  0  0  0  0  0  0
    1.4631   -3.4673    0.0000 H   0  0  0  0  0  0  0  0  0  0  0  0
    1.4631   -5.0873    0.0000 H   0  0  0  0  0  0  0  0  0  0  0  0
    3.7144   -1.9056    0.0000 H   0  0  0  0  0  0  0  0  0  0  0  0
    4.2177   -0.3658    0.0000 H   0  0  0  0  0  0  0  0  0  0  0  0
    5.7145    1.4878    0.0000 H   0  0  0  0  0  0  0  0  0  0  0  0
    4.8390    1.5352    0.0000 H   0  0  0  0  0  0  0  0  0  0  0  0
    4.7916    0.6597    0.0000 H   0  0  0  0  0  0  0  0  0  0  0  0
   11.6739    1.2056    0.0000 H   0  0  0  0  0  0  0  0  0  0  0  0
   11.9565   -0.7174    0.0000 H   0  0  0  0  0  0  0  0  0  0  0  0
   12.7558   -0.0002    0.0000 H   0  0  0  0  0  0  0  0  0  0  0  0
  1 21  1  0  0  0  0
  1 35  1  0  0  0  0
  2 34  2  0  0  0  0
  3 10  1  0  0  0  0
  3 11  1  0  0  0  0
  3 20  1  0  0  0  0
  4 14  1  0  0  0  0
  4 18  1  0  0  0  0
  4 26  1  0  0  0  0
  5 12  1  0  0  0  0
  5 27  1  0  0  0  0
  5 28  1  0  0  0  0
  6 19  1  0  0  0  0
  6 29  1  0  0  0  0
  6 53  1  0  0  0  0
  7 16  1  0  0  0  0
  7 34  1  0  0  0  0
  7 54  1  0  0  0  0
  8 23  2  0  0  0  0
  8 29  1  0  0  0  0
  9 29  2  0  0  0  0
  9 33  1  0  0  0  0
 10 12  1  0  0  0  0
 10 38  1  0  0  0  0
 10 39  1  0  0  0  0
 11 16  1  0  0  0  0
 11 17  2  0  0  0  0
 12 40  1  0  0  0  0
 12 41  1  0  0  0  0
 13 14  1  0  0  0  0
 13 15  1  0  0  0  0
 13 24  2  0  0  0  0
 14 25  2  0  0  0  0
 15 18  2  0  0  0  0
 15 23  1  0  0  0  0
 16 22  2  0  0  0  0
 17 21  1  0  0  0  0
 17 42  1  0  0  0  0
 18 43  1  0  0  0  0
 19 21  2  0  0  0  0
 19 22  1  0  0  0  0
 20 44  1  0  0  0  0
 20 45  1  0  0  0  0
 20 46  1  0  0  0  0
 22 47  1  0  0  0  0
 23 32  1  0  0  0  0
 24 30  1  0  0  0  0
 24 48  1  0  0  0  0
 25 31  1  0  0  0  0
 25 49  1  0  0  0  0
 26 50  1  0  0  0  0
 26 51  1  0  0  0  0
 26 52  1  0  0  0  0
 27 55  1  0  0  0  0
 27 56  1  0  0  0  0
 27 57  1  0  0  0  0
 28 58  1  0  0  0  0
 28 59  1  0  0  0  0
 28 60  1  0  0  0  0
 30 31  2  0  0  0  0
 30 61  1  0  0  0  0
 31 62  1  0  0  0  0
 32 33  2  0  0  0  0
 32 63  1  0  0  0  0
 33 64  1  0  0  0  0
 34 36  1  0  0  0  0
 35 65  1  0  0  0  0
 35 66  1  0  0  0  0
 35 67  1  0  0  0  0
 36 37  2  0  0  0  0
 36 68  1  0  0  0  0
 37 69  1  0  0  0  0
 37 70  1  0  0  0  0
M  END
> <PUBCHEM_COMPOUND_CID>
71496458

> <PUBCHEM_COMPOUND_CANONICALIZED>
1

> <PUBCHEM_CACTVS_COMPLEXITY>
752

> <PUBCHEM_CACTVS_HBOND_ACCEPTOR>
7

> <PUBCHEM_CACTVS_HBOND_DONOR>
2

> <PUBCHEM_CACTVS_ROTATABLE_BOND>
10

> <PUBCHEM_CACTVS_SUBSKEYS>
AAADcfB7sAAAAAAAAAAAAAAAAAAAAWAAAAA8YIAAAAAAAFgB/AAAHgAQAAAADAzBngY/1vfMFACoAzV3dACCiCkxIqAJ2CA/fNiObuLE+duVNChu1BvY6Kew0MMOgECAAgQCECAAgQAECAQgQAAAAAAAAA==

> <PUBCHEM_IUPAC_OPENEYE_NAME>
N-[2-[2-(dimethylamino)ethyl-methyl-amino]-4-methoxy-5-[[4-(1-methylindol-3-yl)pyrimidin-2-yl]amino]phenyl]prop-2-enamide

> <PUBCHEM_IUPAC_CAS_NAME>
N-[2-[2-(dimethylamino)ethyl-methylamino]-4-methoxy-5-[[4-(1-methyl-3-indolyl)-2-pyrimidinyl]amino]phenyl]-2-propenamide

> <PUBCHEM_IUPAC_NAME_MARKUP>
<I>N</I>-[2-[2-(dimethylamino)ethyl-methylamino]-4-methoxy-5-[[4-(1-methylindol-3-yl)pyrimidin-2-yl]amino]phenyl]prop-2-enamide

> <PUBCHEM_IUPAC_NAME>
N-[2-[2-(dimethylamino)ethyl-methylamino]-4-methoxy-5-[[4-(1-methylindol-3-yl)pyrimidin-2-yl]amino]phenyl]prop-2-enamide

> <PUBCHEM_IUPAC_SYSTEMATIC_NAME>
N-[2-[2-(dimethylamino)ethyl-methyl-amino]-4-methoxy-5-[[4-(1-methylindol-3-yl)pyrimidin-2-yl]amino]phenyl]prop-2-enamide

> <PUBCHEM_IUPAC_TRADITIONAL_NAME>
N-[2-[2-(dimethylamino)ethyl-methyl-amino]-4-methoxy-5-[[4-(1-methylindol-3-yl)pyrimidin-2-yl]amino]phenyl]acrylamide

> <PUBCHEM_IUPAC_INCHI>
InChI=1S/C28H33N7O2/c1-7-27(36)30-22-16-23(26(37-6)17-25(22)34(4)15-14-33(2)3)32-28-29-13-12-21(31-28)20-18-35(5)24-11-9-8-10-19(20)24/h7-13,16-18H,1,14-15H2,2-6H3,(H,30,36)(H,29,31,32)

> <PUBCHEM_IUPAC_INCHIKEY>
DUYJMQONPNNFPI-UHFFFAOYSA-N

> <PUBCHEM_XLOGP3_AA>
3.7

> <PUBCHEM_EXACT_MASS>
499.26957332

> <PUBCHEM_MOLECULAR_FORMULA>
C28H33N7O2

> <PUBCHEM_MOLECULAR_WEIGHT>
499.6

> <PUBCHEM_OPENEYE_CAN_SMILES>
CN1C=C(C2=CC=CC=C21)C3=NC(=NC=C3)NC4=C(C=C(C(=C4)NC(=O)C=C)N(C)CCN(C)C)OC

> <PUBCHEM_OPENEYE_ISO_SMILES>
CN1C=C(C2=CC=CC=C21)C3=NC(=NC=C3)NC4=C(C=C(C(=C4)NC(=O)C=C)N(C)CCN(C)C)OC

> <PUBCHEM_CACTVS_TPSA>
87.6

> <PUBCHEM_MONOISOTOPIC_WEIGHT>
499.26957332

> <PUBCHEM_TOTAL_CHARGE>
0

> <PUBCHEM_HEAVY_ATOM_COUNT>
37

> <PUBCHEM_ATOM_DEF_STEREO_COUNT>
0

> <PUBCHEM_ATOM_UDEF_STEREO_COUNT>
0

> <PUBCHEM_BOND_DEF_STEREO_COUNT>
0

> <PUBCHEM_BOND_UDEF_STEREO_COUNT>
0

> <PUBCHEM_ISOTOPIC_ATOM_COUNT>
0

> <PUBCHEM_COMPONENT_COUNT>
1

> <PUBCHEM_CACTVS_TAUTO_COUNT>
-1

> <PUBCHEM_COORDINATE_TYPE>
1
5
255

> <PUBCHEM_BONDANNOTATIONS>
11  16  8
11  17  8
13  14  8
13  15  8
13  24  8
14  25  8
15  18  8
16  22  8
17  21  8
19  21  8
19  22  8
23  32  8
24  30  8
25  31  8
30  31  8
32  33  8
4  14  8
4  18  8
8  23  8
8  29  8
9  29  8
9  33  8

$$$$
121269225
  -OEChem-11282412102D

 75 79  0     0  0  0  0  0  0999 V2000
    2.0000    2.4715    0.0000 O   0  0  0  0  0  0  0  0  0  0  0  0
    5.4641   -1.5285    0.0000 O   0  0  0  0  0  0  0  0  0  0  0  0
    7.1962    2.4715    0.0000 O   0  0  0  0  0  0  0  0  0  0  0  0
    3.7320    1.4715    0.0000 N   0  0  0  0  0  0  0  0  0  0  0  0
    5.4641    2.4715    0.0000 N   0  0  0  0  0  0  0  0  0  0  0  0
    7.1962   -0.5285    0.0000 N   0  0  0  0  0  0  0  0  0  0  0  0
   10.6603   -0.5285    0.0000 N   0  0  0  0  0  0  0  0  0  0  0  0
   13.6442    0.1532    0.0000 N   0  0  0  0  0  0  0  0  0  0  0  0
   10.7648   -1.5230    0.0000 N   0  0  0  0  0  0  0  0  0  0  0  0
    8.9282   -0.5285    0.0000 N   0  0  0  0  0  0  0  0  0  0  0  0
    8.0622    0.9715    0.0000 N   0  0  0  0  0  0  0  0  0  0  0  0
    2.8660    0.9715    0.0000 C   0  0  0  0  0  0  0  0  0  0  0  0
    3.7320    2.4715    0.0000 C   0  0  0  0  0  0  0  0  0  0  0  0
    4.5981    0.9715    0.0000 C   0  0  0  0  0  0  0  0  0  0  0  0
    2.0000    1.4715    0.0000 C   0  0  0  0  0  0  0  0  0  0  0  0
    2.8660    2.9715    0.0000 C   0  0  0  0  0  0  0  0  0  0  0  0
    5.4641    1.4715    0.0000 C   0  0  0  0  0  0  0  0  0  0  0  0
    4.5981   -0.0285    0.0000 C   0  0  0  0  0  0  0  0  0  0  0  0
    5.4641   -0.5285    0.0000 C   0  0  0  0  0  0  0  0  0  0  0  0
    6.3301    0.9715    0.0000 C   0  0  0  0  0  0  0  0  0  0  0  0
    6.3301   -0.0285    0.0000 C   0  0  0  0  0  0  0  0  0  0  0  0
   12.2429   -0.8649    0.0000 C   0  0  0  0  0  0  0  0  0  0  0  0
   13.2375   -0.7603    0.0000 C   0  0  0  0  0  0  0  0  0  0  0  0
   11.7429   -1.7309    0.0000 C   0  0  0  0  0  0  0  0  0  0  0  0
   11.5738   -0.1217    0.0000 C   0  0  0  0  0  0  0  0  0  0  0  0
    8.0622   -0.0285    0.0000 C   0  0  0  0  0  0  0  0  0  0  0  0
    9.7942   -0.0285    0.0000 C   0  0  0  0  0  0  0  0  0  0  0  0
   12.1497   -2.6444    0.0000 C   0  0  0  0  0  0  0  0  0  0  0  0
    6.3301    2.9715    0.0000 C   0  0  0  0  0  0  0  0  0  0  0  0
   14.6387    0.2577    0.0000 C   0  0  0  0  0  0  0  0  0  0  0  0
   13.0564    0.9622    0.0000 C   0  0  0  0  0  0  0  0  0  0  0  0
    9.7942    0.9715    0.0000 C   0  0  0  0  0  0  0  0  0  0  0  0
    4.5981   -2.0285    0.0000 C   0  0  0  0  0  0  0  0  0  0  0  0
   11.5619   -3.4535    0.0000 C   0  0  0  0  0  0  0  0  0  0  0  0
   13.1442   -2.7490    0.0000 C   0  0  0  0  0  0  0  0  0  0  0  0
    8.9282    1.4715    0.0000 C   0  0  0  0  0  0  0  0  0  0  0  0
    6.3301    3.9715    0.0000 C   0  0  0  0  0  0  0  0  0  0  0  0
   11.9686   -4.3670    0.0000 C   0  0  0  0  0  0  0  0  0  0  0  0
   13.5509   -3.6625    0.0000 C   0  0  0  0  0  0  0  0  0  0  0  0
   12.9631   -4.4715    0.0000 C   0  0  0  0  0  0  0  0  0  0  0  0
    7.1962    4.4715    0.0000 C   0  0  0  0  0  0  0  0  0  0  0  0
    2.4675    0.4966    0.0000 H   0  0  0  0  0  0  0  0  0  0  0  0
    3.2646    0.4966    0.0000 H   0  0  0  0  0  0  0  0  0  0  0  0
    4.3426    2.3639    0.0000 H   0  0  0  0  0  0  0  0  0  0  0  0
    3.9441    3.0541    0.0000 H   0  0  0  0  0  0  0  0  0  0  0  0
    1.3894    1.5792    0.0000 H   0  0  0  0  0  0  0  0  0  0  0  0
    1.7880    0.8889    0.0000 H   0  0  0  0  0  0  0  0  0  0  0  0
    3.2646    3.4465    0.0000 H   0  0  0  0  0  0  0  0  0  0  0  0
    2.4675    3.4465    0.0000 H   0  0  0  0  0  0  0  0  0  0  0  0
    4.0611   -0.3385    0.0000 H   0  0  0  0  0  0  0  0  0  0  0  0
    6.8671    1.2815    0.0000 H   0  0  0  0  0  0  0  0  0  0  0  0
    4.9272    2.7815    0.0000 H   0  0  0  0  0  0  0  0  0  0  0  0
    7.1962   -1.1485    0.0000 H   0  0  0  0  0  0  0  0  0  0  0  0
   13.1942   -1.3788    0.0000 H   0  0  0  0  0  0  0  0  0  0  0  0
   13.8390   -0.9103    0.0000 H   0  0  0  0  0  0  0  0  0  0  0  0
   11.7027    0.4847    0.0000 H   0  0  0  0  0  0  0  0  0  0  0  0
   14.7035   -0.3589    0.0000 H   0  0  0  0  0  0  0  0  0  0  0  0
   15.2553    0.3225    0.0000 H   0  0  0  0  0  0  0  0  0  0  0  0
   14.5739    0.8743    0.0000 H   0  0  0  0  0  0  0  0  0  0  0  0
   13.5580    1.3266    0.0000 H   0  0  0  0  0  0  0  0  0  0  0  0
   12.6920    1.4638    0.0000 H   0  0  0  0  0  0  0  0  0  0  0  0
   12.5548    0.5978    0.0000 H   0  0  0  0  0  0  0  0  0  0  0  0
   10.3312    1.2815    0.0000 H   0  0  0  0  0  0  0  0  0  0  0  0
    4.2881   -1.4915    0.0000 H   0  0  0  0  0  0  0  0  0  0  0  0
    4.0611   -2.3385    0.0000 H   0  0  0  0  0  0  0  0  0  0  0  0
    4.9081   -2.5654    0.0000 H   0  0  0  0  0  0  0  0  0  0  0  0
   10.9453   -3.3886    0.0000 H   0  0  0  0  0  0  0  0  0  0  0  0
   13.5086   -2.2474    0.0000 H   0  0  0  0  0  0  0  0  0  0  0  0
    8.9282    2.0915    0.0000 H   0  0  0  0  0  0  0  0  0  0  0  0
    5.7932    4.2815    0.0000 H   0  0  0  0  0  0  0  0  0  0  0  0
   11.6042   -4.8686    0.0000 H   0  0  0  0  0  0  0  0  0  0  0  0
   14.1675   -3.7273    0.0000 H   0  0  0  0  0  0  0  0  0  0  0  0
   13.2153   -5.0379    0.0000 H   0  0  0  0  0  0  0  0  0  0  0  0
    7.7331    4.1615    0.0000 H   0  0  0  0  0  0  0  0  0  0  0  0
    7.1962    5.0915    0.0000 H   0  0  0  0  0  0  0  0  0  0  0  0
  1 15  1  0  0  0  0
  1 16  1  0  0  0  0
  2 19  1  0  0  0  0
  2 33  1  0  0  0  0
  3 29  2  0  0  0  0
  4 12  1  0  0  0  0
  4 13  1  0  0  0  0
  4 14  1  0  0  0  0
  5 17  1  0  0  0  0
  5 29  1  0  0  0  0
  5 52  1  0  0  0  0
  6 21  1  0  0  0  0
  6 26  1  0  0  0  0
  6 53  1  0  0  0  0
  7  9  1  0  0  0  0
  7 25  1  0  0  0  0
  7 27  1  0  0  0  0
  8 23  1  0  0  0  0
  8 30  1  0  0  0  0
  8 31  1  0  0  0  0
  9 24  2  0  0  0  0
 10 26  1  0  0  0  0
 10 27  2  0  0  0  0
 11 26  2  0  0  0  0
 11 36  1  0  0  0  0
 12 15  1  0  0  0  0
 12 42  1  0  0  0  0
 12 43  1  0  0  0  0
 13 16  1  0  0  0  0
 13 44  1  0  0  0  0
 13 45  1  0  0  0  0
 14 17  1  0  0  0  0
 14 18  2  0  0  0  0
 15 46  1  0  0  0  0
 15 47  1  0  0  0  0
 16 48  1  0  0  0  0
 16 49  1  0  0  0  0
 17 20  2  0  0  0  0
 18 19  1  0  0  0  0
 18 50  1  0  0  0  0
 19 21  2  0  0  0  0
 20 21  1  0  0  0  0
 20 51  1  0  0  0  0
 22 23  1  0  0  0  0
 22 24  1  0  0  0  0
 22 25  2  0  0  0  0
 23 54  1  0  0  0  0
 23 55  1  0  0  0  0
 24 28  1  0  0  0  0
 25 56  1  0  0  0  0
 27 32  1  0  0  0  0
 28 34  2  0  0  0  0
 28 35  1  0  0  0  0
 29 37  1  0  0  0  0
 30 57  1  0  0  0  0
 30 58  1  0  0  0  0
 30 59  1  0  0  0  0
 31 60  1  0  0  0  0
 31 61  1  0  0  0  0
 31 62  1  0  0  0  0
 32 36  2  0  0  0  0
 32 63  1  0  0  0  0
 33 64  1  0  0  0  0
 33 65  1  0  0  0  0
 33 66  1  0  0  0  0
 34 38  1  0  0  0  0
 34 67  1  0  0  0  0
 35 39  2  0  0  0  0
 35 68  1  0  0  0  0
 36 69  1  0  0  0  0
 37 41  2  0  0  0  0
 37 70  1  0  0  0  0
 38 40  2  0  0  0  0
 38 71  1  0  0  0  0
 39 40  1  0  0  0  0
 39 72  1  0  0  0  0
 40 73  1  0  0  0  0
 41 74  1  0  0  0  0
 41 75  1  0  0  0  0
M  END
> <PUBCHEM_COMPOUND_CID>
121269225

> <PUBCHEM_COMPOUND_CANONICALIZED>
1

> <PUBCHEM_CACTVS_COMPLEXITY>
837

> <PUBCHEM_CACTVS_HBOND_ACCEPTOR>
9

> <PUBCHEM_CACTVS_HBOND_DONOR>
2

> <PUBCHEM_CACTVS_ROTATABLE_BOND>
10

> <PUBCHEM_CACTVS_SUBSKEYS>
AAADcfB78AAAAAAAAAAAAAAAAAAAAWAAAAA8eIEAAAAAAAAB9AAAHgAYAAAADAzhngY/9pfIFACqAzd3dACSjCkxoqAd2CA/fNiObuLE+duXtChu3BvY6Kew0MMOAECAAgQAECAAgQAECAAgQAAAAAAAAA==

> <PUBCHEM_IUPAC_OPENEYE_NAME>
N-[5-[[4-[4-[(dimethylamino)methyl]-3-phenyl-pyrazol-1-yl]pyrimidin-2-yl]amino]-4-methoxy-2-morpholino-phenyl]prop-2-enamide

> <PUBCHEM_IUPAC_CAS_NAME>
N-[5-[[4-[4-[(dimethylamino)methyl]-3-phenyl-1-pyrazolyl]-2-pyrimidinyl]amino]-4-methoxy-2-(4-morpholinyl)phenyl]-2-propenamide

> <PUBCHEM_IUPAC_NAME_MARKUP>
<I>N</I>-[5-[[4-[4-[(dimethylamino)methyl]-3-phenylpyrazol-1-yl]pyrimidin-2-yl]amino]-4-methoxy-2-morpholin-4-ylphenyl]prop-2-enamide

> <PUBCHEM_IUPAC_NAME>
N-[5-[[4-[4-[(dimethylamino)methyl]-3-phenylpyrazol-1-yl]pyrimidin-2-yl]amino]-4-methoxy-2-morpholin-4-ylphenyl]prop-2-enamide

> <PUBCHEM_IUPAC_SYSTEMATIC_NAME>
N-[5-[[4-[4-[(dimethylamino)methyl]-3-phenyl-pyrazol-1-yl]pyrimidin-2-yl]amino]-4-methoxy-2-morpholin-4-yl-phenyl]prop-2-enamide

> <PUBCHEM_IUPAC_TRADITIONAL_NAME>
N-[5-[[4-[4-[(dimethylamino)methyl]-3-phenyl-pyrazol-1-yl]pyrimidin-2-yl]amino]-4-methoxy-2-morpholino-phenyl]acrylamide

> <PUBCHEM_IUPAC_INCHI>
InChI=1S/C30H34N8O3/c1-5-28(39)32-23-17-24(26(40-4)18-25(23)37-13-15-41-16-14-37)33-30-31-12-11-27(34-30)38-20-22(19-36(2)3)29(35-38)21-9-7-6-8-10-21/h5-12,17-18,20H,1,13-16,19H2,2-4H3,(H,32,39)(H,31,33,34)

> <PUBCHEM_IUPAC_INCHIKEY>
RRMJMHOQSALEJJ-UHFFFAOYSA-N

> <PUBCHEM_XLOGP3_AA>
3.4

> <PUBCHEM_EXACT_MASS>
554.27538698

> <PUBCHEM_MOLECULAR_FORMULA>
C30H34N8O3

> <PUBCHEM_MOLECULAR_WEIGHT>
554.6

> <PUBCHEM_OPENEYE_CAN_SMILES>
CN(C)CC1=CN(N=C1C2=CC=CC=C2)C3=NC(=NC=C3)NC4=C(C=C(C(=C4)NC(=O)C=C)N5CCOCC5)OC

> <PUBCHEM_OPENEYE_ISO_SMILES>
CN(C)CC1=CN(N=C1C2=CC=CC=C2)C3=NC(=NC=C3)NC4=C(C=C(C(=C4)NC(=O)C=C)N5CCOCC5)OC

> <PUBCHEM_CACTVS_TPSA>
110

> <PUBCHEM_MONOISOTOPIC_WEIGHT>
554.27538698

> <PUBCHEM_TOTAL_CHARGE>
0

> <PUBCHEM_HEAVY_ATOM_COUNT>
41

> <PUBCHEM_ATOM_DEF_STEREO_COUNT>
0

> <PUBCHEM_ATOM_UDEF_STEREO_COUNT>
0

> <PUBCHEM_BOND_DEF_STEREO_COUNT>
0

> <PUBCHEM_BOND_UDEF_STEREO_COUNT>
0

> <PUBCHEM_ISOTOPIC_ATOM_COUNT>
0

> <PUBCHEM_COMPONENT_COUNT>
1

> <PUBCHEM_CACTVS_TAUTO_COUNT>
-1

> <PUBCHEM_COORDINATE_TYPE>
1
5
255

> <PUBCHEM_BONDANNOTATIONS>
10  26  8
10  27  8
11  26  8
11  36  8
14  17  8
14  18  8
17  20  8
18  19  8
19  21  8
20  21  8
22  24  8
22  25  8
27  32  8
28  34  8
28  35  8
32  36  8
34  38  8
35  39  8
38  40  8
39  40  8
7  25  8
7  9  8
9  24  8

$$$$
123631
  -OEChem-11282412102D

 55 58  0     0  0  0  0  0  0999 V2000
   12.3739   -3.5272    0.0000 Cl  0  0  0  0  0  0  0  0  0  0  0  0
   14.1174   -2.5473    0.0000 F   0  0  0  0  0  0  0  0  0  0  0  0
    2.0000   -0.4728    0.0000 O   0  0  0  0  0  0  0  0  0  0  0  0
    7.1962    0.5272    0.0000 O   0  0  0  0  0  0  0  0  0  0  0  0
    7.1962    2.5272    0.0000 O   0  0  0  0  0  0  0  0  0  0  0  0
    3.7320    0.5272    0.0000 N   0  0  0  0  0  0  0  0  0  0  0  0
   10.6766   -0.5074    0.0000 N   0  0  0  0  0  0  0  0  0  0  0  0
   10.6882    2.5619    0.0000 N   0  0  0  0  0  0  0  0  0  0  0  0
   11.5942    1.0064    0.0000 N   0  0  0  0  0  0  0  0  0  0  0  0
    4.5981    1.0272    0.0000 C   0  0  0  0  0  0  0  0  0  0  0  0
    3.7320   -0.4728    0.0000 C   0  0  0  0  0  0  0  0  0  0  0  0
    2.8660    1.0272    0.0000 C   0  0  0  0  0  0  0  0  0  0  0  0
    5.4641    0.5272    0.0000 C   0  0  0  0  0  0  0  0  0  0  0  0
    2.8660   -0.9728    0.0000 C   0  0  0  0  0  0  0  0  0  0  0  0
    2.0000    0.5272    0.0000 C   0  0  0  0  0  0  0  0  0  0  0  0
    6.3301    1.0272    0.0000 C   0  0  0  0  0  0  0  0  0  0  0  0
    8.0622    1.0272    0.0000 C   0  0  0  0  0  0  0  0  0  0  0  0
    9.7942    1.0272    0.0000 C   0  0  0  0  0  0  0  0  0  0  0  0
    8.9282    0.5272    0.0000 C   0  0  0  0  0  0  0  0  0  0  0  0
    8.0622    2.0272    0.0000 C   0  0  0  0  0  0  0  0  0  0  0  0
    9.7942    2.0272    0.0000 C   0  0  0  0  0  0  0  0  0  0  0  0
    8.9282    2.5272    0.0000 C   0  0  0  0  0  0  0  0  0  0  0  0
   10.6882    0.4926    0.0000 C   0  0  0  0  0  0  0  0  0  0  0  0
   11.5368   -1.0174    0.0000 C   0  0  0  0  0  0  0  0  0  0  0  0
   11.5942    2.0480    0.0000 C   0  0  0  0  0  0  0  0  0  0  0  0
    7.1962    3.5272    0.0000 C   0  0  0  0  0  0  0  0  0  0  0  0
   11.5252   -2.0173    0.0000 C   0  0  0  0  0  0  0  0  0  0  0  0
   12.4085   -0.5274    0.0000 C   0  0  0  0  0  0  0  0  0  0  0  0
   12.3854   -2.5273    0.0000 C   0  0  0  0  0  0  0  0  0  0  0  0
   13.2687   -1.0374    0.0000 C   0  0  0  0  0  0  0  0  0  0  0  0
   13.2572   -2.0373    0.0000 C   0  0  0  0  0  0  0  0  0  0  0  0
    4.9966    1.5022    0.0000 H   0  0  0  0  0  0  0  0  0  0  0  0
    4.1996    1.5022    0.0000 H   0  0  0  0  0  0  0  0  0  0  0  0
    3.9441   -1.0554    0.0000 H   0  0  0  0  0  0  0  0  0  0  0  0
    4.3426   -0.3651    0.0000 H   0  0  0  0  0  0  0  0  0  0  0  0
    3.2646    1.5022    0.0000 H   0  0  0  0  0  0  0  0  0  0  0  0
    2.4675    1.5022    0.0000 H   0  0  0  0  0  0  0  0  0  0  0  0
    5.0656    0.0523    0.0000 H   0  0  0  0  0  0  0  0  0  0  0  0
    5.8626    0.0523    0.0000 H   0  0  0  0  0  0  0  0  0  0  0  0
    2.4675   -1.4477    0.0000 H   0  0  0  0  0  0  0  0  0  0  0  0
    3.2646   -1.4477    0.0000 H   0  0  0  0  0  0  0  0  0  0  0  0
    1.7880    1.1098    0.0000 H   0  0  0  0  0  0  0  0  0  0  0  0
    1.3894    0.4195    0.0000 H   0  0  0  0  0  0  0  0  0  0  0  0
    6.7287    1.5022    0.0000 H   0  0  0  0  0  0  0  0  0  0  0  0
    5.9316    1.5022    0.0000 H   0  0  0  0  0  0  0  0  0  0  0  0
    8.9282   -0.0928    0.0000 H   0  0  0  0  0  0  0  0  0  0  0  0
    8.9282    3.1472    0.0000 H   0  0  0  0  0  0  0  0  0  0  0  0
   10.1361   -0.8112    0.0000 H   0  0  0  0  0  0  0  0  0  0  0  0
   12.1300    2.3601    0.0000 H   0  0  0  0  0  0  0  0  0  0  0  0
   10.9847   -2.3211    0.0000 H   0  0  0  0  0  0  0  0  0  0  0  0
   12.4157    0.0925    0.0000 H   0  0  0  0  0  0  0  0  0  0  0  0
    7.8162    3.5272    0.0000 H   0  0  0  0  0  0  0  0  0  0  0  0
    7.1962    4.1472    0.0000 H   0  0  0  0  0  0  0  0  0  0  0  0
    6.5762    3.5272    0.0000 H   0  0  0  0  0  0  0  0  0  0  0  0
   13.8092   -0.7336    0.0000 H   0  0  0  0  0  0  0  0  0  0  0  0
  1 29  1  0  0  0  0
  2 31  1  0  0  0  0
  3 14  1  0  0  0  0
  3 15  1  0  0  0  0
  4 16  1  0  0  0  0
  4 17  1  0  0  0  0
  5 20  1  0  0  0  0
  5 26  1  0  0  0  0
  6 10  1  0  0  0  0
  6 11  1  0  0  0  0
  6 12  1  0  0  0  0
  7 23  1  0  0  0  0
  7 24  1  0  0  0  0
  7 48  1  0  0  0  0
  8 21  1  0  0  0  0
  8 25  2  0  0  0  0
  9 23  2  0  0  0  0
  9 25  1  0  0  0  0
 10 13  1  0  0  0  0
 10 32  1  0  0  0  0
 10 33  1  0  0  0  0
 11 14  1  0  0  0  0
 11 34  1  0  0  0  0
 11 35  1  0  0  0  0
 12 15  1  0  0  0  0
 12 36  1  0  0  0  0
 12 37  1  0  0  0  0
 13 16  1  0  0  0  0
 13 38  1  0  0  0  0
 13 39  1  0  0  0  0
 14 40  1  0  0  0  0
 14 41  1  0  0  0  0
 15 42  1  0  0  0  0
 15 43  1  0  0  0  0
 16 44  1  0  0  0  0
 16 45  1  0  0  0  0
 17 19  1  0  0  0  0
 17 20  2  0  0  0  0
 18 19  2  0  0  0  0
 18 21  1  0  0  0  0
 18 23  1  0  0  0  0
 19 46  1  0  0  0  0
 20 22  1  0  0  0  0
 21 22  2  0  0  0  0
 22 47  1  0  0  0  0
 24 27  2  0  0  0  0
 24 28  1  0  0  0  0
 25 49  1  0  0  0  0
 26 52  1  0  0  0  0
 26 53  1  0  0  0  0
 26 54  1  0  0  0  0
 27 29  1  0  0  0  0
 27 50  1  0  0  0  0
 28 30  2  0  0  0  0
 28 51  1  0  0  0  0
 29 31  2  0  0  0  0
 30 31  1  0  0  0  0
 30 55  1  0  0  0  0
M  END
> <PUBCHEM_COMPOUND_CID>
123631

> <PUBCHEM_COMPOUND_CANONICALIZED>
1

> <PUBCHEM_CACTVS_COMPLEXITY>
545

> <PUBCHEM_CACTVS_HBOND_ACCEPTOR>
8

> <PUBCHEM_CACTVS_HBOND_DONOR>
1

> <PUBCHEM_CACTVS_ROTATABLE_BOND>
8

> <PUBCHEM_CACTVS_SUBSKEYS>
AAADceB7sQAEAAAAAAAAAAAAAAAAAAAAAAA8eIEAAAAAAACx9AAAHwIQAAAADA7hni439vfIFACgAyZjZACCiCkxJ6AJ2CA+7piPLuLF+9uHPCru0Bva6Cew0BMOIEABAgICQABAgAIEBASAAAAAAAAAAA==

> <PUBCHEM_IUPAC_OPENEYE_NAME>
N-(3-chloro-4-fluoro-phenyl)-7-methoxy-6-(3-morpholinopropoxy)quinazolin-4-amine

> <PUBCHEM_IUPAC_CAS_NAME>
N-(3-chloro-4-fluorophenyl)-7-methoxy-6-[3-(4-morpholinyl)propoxy]-4-quinazolinamine

> <PUBCHEM_IUPAC_NAME_MARKUP>
<I>N</I>-(3-chloro-4-fluorophenyl)-7-methoxy-6-(3-morpholin-4-ylpropoxy)quinazolin-4-amine

> <PUBCHEM_IUPAC_NAME>
N-(3-chloro-4-fluorophenyl)-7-methoxy-6-(3-morpholin-4-ylpropoxy)quinazolin-4-amine

> <PUBCHEM_IUPAC_SYSTEMATIC_NAME>
N-(3-chloranyl-4-fluoranyl-phenyl)-7-methoxy-6-(3-morpholin-4-ylpropoxy)quinazolin-4-amine

> <PUBCHEM_IUPAC_TRADITIONAL_NAME>
(3-chloro-4-fluoro-phenyl)-[7-methoxy-6-(3-morpholinopropoxy)quinazolin-4-yl]amine

> <PUBCHEM_IUPAC_INCHI>
InChI=1S/C22H24ClFN4O3/c1-29-20-13-19-16(12-21(20)31-8-2-5-28-6-9-30-10-7-28)22(26-14-25-19)27-15-3-4-18(24)17(23)11-15/h3-4,11-14H,2,5-10H2,1H3,(H,25,26,27)

> <PUBCHEM_IUPAC_INCHIKEY>
XGALLCVXEZPNRQ-UHFFFAOYSA-N

> <PUBCHEM_XLOGP3_AA>
4.1

> <PUBCHEM_EXACT_MASS>
446.1520965

> <PUBCHEM_MOLECULAR_FORMULA>
C22H24ClFN4O3

> <PUBCHEM_MOLECULAR_WEIGHT>
446.9

> <PUBCHEM_OPENEYE_CAN_SMILES>
COC1=C(C=C2C(=C1)N=CN=C2NC3=CC(=C(C=C3)F)Cl)OCCCN4CCOCC4

> <PUBCHEM_OPENEYE_ISO_SMILES>
COC1=C(C=C2C(=C1)N=CN=C2NC3=CC(=C(C=C3)F)Cl)OCCCN4CCOCC4

> <PUBCHEM_CACTVS_TPSA>
68.7

> <PUBCHEM_MONOISOTOPIC_WEIGHT>
446.1520965

> <PUBCHEM_TOTAL_CHARGE>
0

> <PUBCHEM_HEAVY_ATOM_COUNT>
31

> <PUBCHEM_ATOM_DEF_STEREO_COUNT>
0

> <PUBCHEM_ATOM_UDEF_STEREO_COUNT>
0

> <PUBCHEM_BOND_DEF_STEREO_COUNT>
0

> <PUBCHEM_BOND_UDEF_STEREO_COUNT>
0

> <PUBCHEM_ISOTOPIC_ATOM_COUNT>
0

> <PUBCHEM_COMPONENT_COUNT>
1

> <PUBCHEM_CACTVS_TAUTO_COUNT>
-1

> <PUBCHEM_COORDINATE_TYPE>
1
5
255

> <PUBCHEM_BONDANNOTATIONS>
17  19  8
17  20  8
18  19  8
18  21  8
18  23  8
20  22  8
21  22  8
24  27  8
24  28  8
27  29  8
28  30  8
29  31  8
30  31  8
8  21  8
8  25  8
9  23  8
9  25  8

$$$$
176870
  -OEChem-11282412102D

 52 54  0     0  0  0  0  0  0999 V2000
    5.4641    0.3372    0.0000 O   0  0  0  0  0  0  0  0  0  0  0  0
    5.4641    2.3372    0.0000 O   0  0  0  0  0  0  0  0  0  0  0  0
    2.8660    0.8372    0.0000 O   0  0  0  0  0  0  0  0  0  0  0  0
    4.5981    4.8372    0.0000 O   0  0  0  0  0  0  0  0  0  0  0  0
    8.9446   -0.6974    0.0000 N   0  0  0  0  0  0  0  0  0  0  0  0
    8.9561    2.3718    0.0000 N   0  0  0  0  0  0  0  0  0  0  0  0
    9.8622    0.8163    0.0000 N   0  0  0  0  0  0  0  0  0  0  0  0
    8.0622    0.8372    0.0000 C   0  0  0  0  0  0  0  0  0  0  0  0
    8.0622    1.8372    0.0000 C   0  0  0  0  0  0  0  0  0  0  0  0
    6.3301    0.8372    0.0000 C   0  0  0  0  0  0  0  0  0  0  0  0
    6.3301    1.8372    0.0000 C   0  0  0  0  0  0  0  0  0  0  0  0
    7.1962    0.3372    0.0000 C   0  0  0  0  0  0  0  0  0  0  0  0
    8.9561    0.3025    0.0000 C   0  0  0  0  0  0  0  0  0  0  0  0
    7.1962    2.3372    0.0000 C   0  0  0  0  0  0  0  0  0  0  0  0
    4.5981    0.8372    0.0000 C   0  0  0  0  0  0  0  0  0  0  0  0
    9.8047   -1.2074    0.0000 C   0  0  0  0  0  0  0  0  0  0  0  0
    5.4641    3.3372    0.0000 C   0  0  0  0  0  0  0  0  0  0  0  0
    9.8622    1.8580    0.0000 C   0  0  0  0  0  0  0  0  0  0  0  0
    3.7320    0.3372    0.0000 C   0  0  0  0  0  0  0  0  0  0  0  0
    4.5981    3.8372    0.0000 C   0  0  0  0  0  0  0  0  0  0  0  0
    9.7932   -2.2074    0.0000 C   0  0  0  0  0  0  0  0  0  0  0  0
   10.6765   -0.7175    0.0000 C   0  0  0  0  0  0  0  0  0  0  0  0
   10.6534   -2.7173    0.0000 C   0  0  0  0  0  0  0  0  0  0  0  0
   11.5367   -1.2274    0.0000 C   0  0  0  0  0  0  0  0  0  0  0  0
   11.5251   -2.2274    0.0000 C   0  0  0  0  0  0  0  0  0  0  0  0
    2.0000    0.3372    0.0000 C   0  0  0  0  0  0  0  0  0  0  0  0
    3.7320    5.3372    0.0000 C   0  0  0  0  0  0  0  0  0  0  0  0
   10.6418   -3.7173    0.0000 C   0  0  0  0  0  0  0  0  0  0  0  0
   10.6302   -4.7172    0.0000 C   0  0  0  0  0  0  0  0  0  0  0  0
    7.1962   -0.2828    0.0000 H   0  0  0  0  0  0  0  0  0  0  0  0
    7.1962    2.9572    0.0000 H   0  0  0  0  0  0  0  0  0  0  0  0
    8.4041   -1.0012    0.0000 H   0  0  0  0  0  0  0  0  0  0  0  0
    4.9966    1.3121    0.0000 H   0  0  0  0  0  0  0  0  0  0  0  0
    4.1996    1.3121    0.0000 H   0  0  0  0  0  0  0  0  0  0  0  0
    6.0747    3.2295    0.0000 H   0  0  0  0  0  0  0  0  0  0  0  0
    5.6762    3.9198    0.0000 H   0  0  0  0  0  0  0  0  0  0  0  0
   10.3979    2.1700    0.0000 H   0  0  0  0  0  0  0  0  0  0  0  0
    3.3335   -0.1378    0.0000 H   0  0  0  0  0  0  0  0  0  0  0  0
    4.1306   -0.1378    0.0000 H   0  0  0  0  0  0  0  0  0  0  0  0
    3.9875    3.9448    0.0000 H   0  0  0  0  0  0  0  0  0  0  0  0
    4.3860    3.2546    0.0000 H   0  0  0  0  0  0  0  0  0  0  0  0
    9.2527   -2.5111    0.0000 H   0  0  0  0  0  0  0  0  0  0  0  0
   10.6837   -0.0975    0.0000 H   0  0  0  0  0  0  0  0  0  0  0  0
   12.0772   -0.9237    0.0000 H   0  0  0  0  0  0  0  0  0  0  0  0
   12.0584   -2.5436    0.0000 H   0  0  0  0  0  0  0  0  0  0  0  0
    1.6900    0.8741    0.0000 H   0  0  0  0  0  0  0  0  0  0  0  0
    1.4631    0.0272    0.0000 H   0  0  0  0  0  0  0  0  0  0  0  0
    2.3100   -0.1998    0.0000 H   0  0  0  0  0  0  0  0  0  0  0  0
    4.0420    5.8741    0.0000 H   0  0  0  0  0  0  0  0  0  0  0  0
    3.1951    5.6472    0.0000 H   0  0  0  0  0  0  0  0  0  0  0  0
    3.4220    4.8002    0.0000 H   0  0  0  0  0  0  0  0  0  0  0  0
   10.6231   -5.3372    0.0000 H   0  0  0  0  0  0  0  0  0  0  0  0
  1 10  1  0  0  0  0
  1 15  1  0  0  0  0
  2 11  1  0  0  0  0
  2 17  1  0  0  0  0
  3 19  1  0  0  0  0
  3 26  1  0  0  0  0
  4 20  1  0  0  0  0
  4 27  1  0  0  0  0
  5 13  1  0  0  0  0
  5 16  1  0  0  0  0
  5 32  1  0  0  0  0
  6  9  1  0  0  0  0
  6 18  2  0  0  0  0
  7 13  2  0  0  0  0
  7 18  1  0  0  0  0
  8  9  1  0  0  0  0
  8 12  2  0  0  0  0
  8 13  1  0  0  0  0
  9 14  2  0  0  0  0
 10 11  2  0  0  0  0
 10 12  1  0  0  0  0
 11 14  1  0  0  0  0
 12 30  1  0  0  0  0
 14 31  1  0  0  0  0
 15 19  1  0  0  0  0
 15 33  1  0  0  0  0
 15 34  1  0  0  0  0
 16 21  1  0  0  0  0
 16 22  2  0  0  0  0
 17 20  1  0  0  0  0
 17 35  1  0  0  0  0
 17 36  1  0  0  0  0
 18 37  1  0  0  0  0
 19 38  1  0  0  0  0
 19 39  1  0  0  0  0
 20 40  1  0  0  0  0
 20 41  1  0  0  0  0
 21 23  2  0  0  0  0
 21 42  1  0  0  0  0
 22 24  1  0  0  0  0
 22 43  1  0  0  0  0
 23 25  1  0  0  0  0
 23 28  1  0  0  0  0
 24 25  2  0  0  0  0
 24 44  1  0  0  0  0
 25 45  1  0  0  0  0
 26 46  1  0  0  0  0
 26 47  1  0  0  0  0
 26 48  1  0  0  0  0
 27 49  1  0  0  0  0
 27 50  1  0  0  0  0
 27 51  1  0  0  0  0
 28 29  3  0  0  0  0
 29 52  1  0  0  0  0
M  END
> <PUBCHEM_COMPOUND_CID>
176870

> <PUBCHEM_COMPOUND_CANONICALIZED>
1

> <PUBCHEM_CACTVS_COMPLEXITY>
525

> <PUBCHEM_CACTVS_HBOND_ACCEPTOR>
7

> <PUBCHEM_CACTVS_HBOND_DONOR>
1

> <PUBCHEM_CACTVS_ROTATABLE_BOND>
11

> <PUBCHEM_CACTVS_SUBSKEYS>
AAADceB7OAAAAAAAAAAAAAAAAAAAAAAAAAA8YIAAAAAAAACx9AAAHgAQAAAADAyhngY39vbIFADgGyZjZAiCiCkxIqAJ2CA+7JiNLuLE+duGPCru0BvK6Cew0BMOIEABQgACQABAgAKEAASAAAAAAAAAAA==

> <PUBCHEM_IUPAC_OPENEYE_NAME>
N-(3-ethynylphenyl)-6,7-bis(2-methoxyethoxy)quinazolin-4-amine

> <PUBCHEM_IUPAC_CAS_NAME>
N-(3-ethynylphenyl)-6,7-bis(2-methoxyethoxy)-4-quinazolinamine

> <PUBCHEM_IUPAC_NAME_MARKUP>
<I>N</I>-(3-ethynylphenyl)-6,7-bis(2-methoxyethoxy)quinazolin-4-amine

> <PUBCHEM_IUPAC_NAME>
N-(3-ethynylphenyl)-6,7-bis(2-methoxyethoxy)quinazolin-4-amine

> <PUBCHEM_IUPAC_SYSTEMATIC_NAME>
N-(3-ethynylphenyl)-6,7-bis(2-methoxyethoxy)quinazolin-4-amine

> <PUBCHEM_IUPAC_TRADITIONAL_NAME>
[6,7-bis(2-methoxyethoxy)quinazolin-4-yl]-(3-ethynylphenyl)amine

> <PUBCHEM_IUPAC_INCHI>
InChI=1S/C22H23N3O4/c1-4-16-6-5-7-17(12-16)25-22-18-13-20(28-10-8-26-2)21(29-11-9-27-3)14-19(18)23-15-24-22/h1,5-7,12-15H,8-11H2,2-3H3,(H,23,24,25)

> <PUBCHEM_IUPAC_INCHIKEY>
AAKJLRGGTJKAMG-UHFFFAOYSA-N

> <PUBCHEM_XLOGP3_AA>
3.3

> <PUBCHEM_EXACT_MASS>
393.16885622

> <PUBCHEM_MOLECULAR_FORMULA>
C22H23N3O4

> <PUBCHEM_MOLECULAR_WEIGHT>
393.4

> <PUBCHEM_OPENEYE_CAN_SMILES>
COCCOC1=C(C=C2C(=C1)C(=NC=N2)NC3=CC=CC(=C3)C#C)OCCOC

> <PUBCHEM_OPENEYE_ISO_SMILES>
COCCOC1=C(C=C2C(=C1)C(=NC=N2)NC3=CC=CC(=C3)C#C)OCCOC

> <PUBCHEM_CACTVS_TPSA>
74.7

> <PUBCHEM_MONOISOTOPIC_WEIGHT>
393.16885622

> <PUBCHEM_TOTAL_CHARGE>
0

> <PUBCHEM_HEAVY_ATOM_COUNT>
29

> <PUBCHEM_ATOM_DEF_STEREO_COUNT>
0

> <PUBCHEM_ATOM_UDEF_STEREO_COUNT>
0

> <PUBCHEM_BOND_DEF_STEREO_COUNT>
0

> <PUBCHEM_BOND_UDEF_STEREO_COUNT>
0

> <PUBCHEM_ISOTOPIC_ATOM_COUNT>
0

> <PUBCHEM_COMPONENT_COUNT>
1

> <PUBCHEM_CACTVS_TAUTO_COUNT>
3

> <PUBCHEM_COORDINATE_TYPE>
1
5
255

> <PUBCHEM_BONDANNOTATIONS>
10  11  8
10  12  8
11  14  8
16  21  8
16  22  8
21  23  8
22  24  8
23  25  8
24  25  8
6  18  8
6  9  8
7  13  8
7  18  8
8  12  8
8  13  8
8  9  8
9  14  8

$$$$
46908927
  -OEChem-11282412102D

 68 71  0     0  0  0  0  0  0999 V2000
    6.3862    0.0000    0.0000 Cl  0  0  0  0  0  0  0  0  0  0  0  0
    9.6145    2.4986    0.0000 F   0  0  0  0  0  0  0  0  0  0  0  0
    8.3534    3.1385    0.0000 F   0  0  0  0  0  0  0  0  0  0  0  0
   10.2544    3.7598    0.0000 F   0  0  0  0  0  0  0  0  0  0  0  0
    7.0827    7.4574    0.0000 O   0  0  0  0  0  0  0  0  0  0  0  0
   11.3074    5.6820    0.0000 N   0  0  0  0  0  0  0  0  0  0  0  0
   12.6431    7.1706    0.0000 N   0  0  0  0  0  0  0  0  0  0  0  0
    6.7255    5.7626    0.0000 N   0  0  0  0  0  0  0  0  0  0  0  0
    2.2690   11.2324    0.0000 N   0  0  0  0  0  0  0  0  0  0  0  0
    3.2152   12.5371    0.0000 N   0  0  0  0  0  0  0  0  0  0  0  0
    1.4030   10.7324    0.0000 N   0  0  0  0  0  0  0  0  0  0  0  0
   12.2859    5.4758    0.0000 C   0  0  0  0  0  0  0  0  0  0  0  0
   10.9967    6.6326    0.0000 C   0  0  0  0  0  0  0  0  0  0  0  0
   12.9537    6.2201    0.0000 C   0  0  0  0  0  0  0  0  0  0  0  0
   11.6646    7.3769    0.0000 C   0  0  0  0  0  0  0  0  0  0  0  0
   10.6396    4.9378    0.0000 C   0  0  0  0  0  0  0  0  0  0  0  0
    9.6610    5.1440    0.0000 C   0  0  0  0  0  0  0  0  0  0  0  0
   13.3109    7.9150    0.0000 C   0  0  0  0  0  0  0  0  0  0  0  0
    8.9932    4.3997    0.0000 C   0  0  0  0  0  0  0  0  0  0  0  0
    9.3504    6.0945    0.0000 C   0  0  0  0  0  0  0  0  0  0  0  0
    8.0147    4.6059    0.0000 C   0  0  0  0  0  0  0  0  0  0  0  0
    8.3719    6.3007    0.0000 C   0  0  0  0  0  0  0  0  0  0  0  0
    7.7040    5.5564    0.0000 C   0  0  0  0  0  0  0  0  0  0  0  0
    9.3039    3.4491    0.0000 C   0  0  0  0  0  0  0  0  0  0  0  0
    6.4149    6.7131    0.0000 C   0  0  0  0  0  0  0  0  0  0  0  0
    5.4364    6.9194    0.0000 C   0  0  0  0  0  0  0  0  0  0  0  0
    5.1257    7.8699    0.0000 C   0  0  0  0  0  0  0  0  0  0  0  0
    4.7685    6.1751    0.0000 C   0  0  0  0  0  0  0  0  0  0  0  0
    4.1472    8.0761    0.0000 C   0  0  0  0  0  0  0  0  0  0  0  0
    3.4794    7.3318    0.0000 C   0  0  0  0  0  0  0  0  0  0  0  0
    3.7900    6.3813    0.0000 C   0  0  0  0  0  0  0  0  0  0  0  0
    2.5008    7.5380    0.0000 C   0  0  0  0  0  0  0  0  0  0  0  0
    3.8365    9.0266    0.0000 C   0  0  0  0  0  0  0  0  0  0  0  0
    3.2152   10.9277    0.0000 C   0  0  0  0  0  0  0  0  0  0  0  0
    2.2690   12.2324    0.0000 C   0  0  0  0  0  0  0  0  0  0  0  0
    3.5259    9.9771    0.0000 C   0  0  0  0  0  0  0  0  0  0  0  0
    3.7988   11.7324    0.0000 C   0  0  0  0  0  0  0  0  0  0  0  0
    1.4030   12.7324    0.0000 C   0  0  0  0  0  0  0  0  0  0  0  0
    0.5369   12.2324    0.0000 C   0  0  0  0  0  0  0  0  0  0  0  0
    0.5369   11.2324    0.0000 C   0  0  0  0  0  0  0  0  0  0  0  0
   12.0546    4.9006    0.0000 H   0  0  0  0  0  0  0  0  0  0  0  0
   12.8123    5.1482    0.0000 H   0  0  0  0  0  0  0  0  0  0  0  0
   10.6142    7.1205    0.0000 H   0  0  0  0  0  0  0  0  0  0  0  0
   10.4498    6.3406    0.0000 H   0  0  0  0  0  0  0  0  0  0  0  0
   13.3363    5.7322    0.0000 H   0  0  0  0  0  0  0  0  0  0  0  0
   13.5007    6.5122    0.0000 H   0  0  0  0  0  0  0  0  0  0  0  0
   11.8958    7.9521    0.0000 H   0  0  0  0  0  0  0  0  0  0  0  0
   11.1382    7.7045    0.0000 H   0  0  0  0  0  0  0  0  0  0  0  0
   10.4083    4.3625    0.0000 H   0  0  0  0  0  0  0  0  0  0  0  0
   11.1659    4.6101    0.0000 H   0  0  0  0  0  0  0  0  0  0  0  0
   13.7724    7.5009    0.0000 H   0  0  0  0  0  0  0  0  0  0  0  0
   13.7250    8.3764    0.0000 H   0  0  0  0  0  0  0  0  0  0  0  0
   12.8495    8.3290    0.0000 H   0  0  0  0  0  0  0  0  0  0  0  0
    9.7644    6.5560    0.0000 H   0  0  0  0  0  0  0  0  0  0  0  0
    7.6006    4.1444    0.0000 H   0  0  0  0  0  0  0  0  0  0  0  0
    8.1793    6.8900    0.0000 H   0  0  0  0  0  0  0  0  0  0  0  0
    6.3115    5.3012    0.0000 H   0  0  0  0  0  0  0  0  0  0  0  0
    5.5398    8.3314    0.0000 H   0  0  0  0  0  0  0  0  0  0  0  0
    4.9611    5.5857    0.0000 H   0  0  0  0  0  0  0  0  0  0  0  0
    3.3760    5.9198    0.0000 H   0  0  0  0  0  0  0  0  0  0  0  0
    2.6287    8.1447    0.0000 H   0  0  0  0  0  0  0  0  0  0  0  0
    1.8942    7.6659    0.0000 H   0  0  0  0  0  0  0  0  0  0  0  0
    2.3730    6.9313    0.0000 H   0  0  0  0  0  0  0  0  0  0  0  0
    4.4188   11.7324    0.0000 H   0  0  0  0  0  0  0  0  0  0  0  0
    1.4030   13.3524    0.0000 H   0  0  0  0  0  0  0  0  0  0  0  0
    0.0000   12.5424    0.0000 H   0  0  0  0  0  0  0  0  0  0  0  0
    0.0000   10.9224    0.0000 H   0  0  0  0  0  0  0  0  0  0  0  0
    7.3862    0.0000    0.0000 H   0  0  0  0  0  0  0  0  0  0  0  0
  1 68  1  0  0  0  0
  2 24  1  0  0  0  0
  3 24  1  0  0  0  0
  4 24  1  0  0  0  0
  5 25  2  0  0  0  0
  6 12  1  0  0  0  0
  6 13  1  0  0  0  0
  6 16  1  0  0  0  0
  7 14  1  0  0  0  0
  7 15  1  0  0  0  0
  7 18  1  0  0  0  0
  8 23  1  0  0  0  0
  8 25  1  0  0  0  0
  8 57  1  0  0  0  0
  9 11  1  0  0  0  0
  9 34  1  0  0  0  0
  9 35  1  0  0  0  0
 10 35  2  0  0  0  0
 10 37  1  0  0  0  0
 11 40  2  0  0  0  0
 12 14  1  0  0  0  0
 12 41  1  0  0  0  0
 12 42  1  0  0  0  0
 13 15  1  0  0  0  0
 13 43  1  0  0  0  0
 13 44  1  0  0  0  0
 14 45  1  0  0  0  0
 14 46  1  0  0  0  0
 15 47  1  0  0  0  0
 15 48  1  0  0  0  0
 16 17  1  0  0  0  0
 16 49  1  0  0  0  0
 16 50  1  0  0  0  0
 17 19  2  0  0  0  0
 17 20  1  0  0  0  0
 18 51  1  0  0  0  0
 18 52  1  0  0  0  0
 18 53  1  0  0  0  0
 19 21  1  0  0  0  0
 19 24  1  0  0  0  0
 20 22  2  0  0  0  0
 20 54  1  0  0  0  0
 21 23  2  0  0  0  0
 21 55  1  0  0  0  0
 22 23  1  0  0  0  0
 22 56  1  0  0  0  0
 25 26  1  0  0  0  0
 26 27  2  0  0  0  0
 26 28  1  0  0  0  0
 27 29  1  0  0  0  0
 27 58  1  0  0  0  0
 28 31  2  0  0  0  0
 28 59  1  0  0  0  0
 29 30  2  0  0  0  0
 29 33  1  0  0  0  0
 30 31  1  0  0  0  0
 30 32  1  0  0  0  0
 31 60  1  0  0  0  0
 32 61  1  0  0  0  0
 32 62  1  0  0  0  0
 32 63  1  0  0  0  0
 33 36  3  0  0  0  0
 34 36  1  0  0  0  0
 34 37  2  0  0  0  0
 35 38  1  0  0  0  0
 37 64  1  0  0  0  0
 38 39  2  0  0  0  0
 38 65  1  0  0  0  0
 39 40  1  0  0  0  0
 39 66  1  0  0  0  0
 40 67  1  0  0  0  0
M  END
> <PUBCHEM_COMPOUND_CID>
46908927

> <PUBCHEM_COMPOUND_CANONICALIZED>
1

> <PUBCHEM_CACTVS_COMPLEXITY>
910

> <PUBCHEM_CACTVS_HBOND_ACCEPTOR>
8

> <PUBCHEM_CACTVS_HBOND_DONOR>
2

> <PUBCHEM_CACTVS_ROTATABLE_BOND>
6

> <PUBCHEM_CACTVS_SUBSKEYS>
AAADceB7oYAEAAAAAAAAAAAAAAAAAWAAAAA8eIEAAAAAAFgB9AAAHwAYAAAADAjBnxQ/8J/IEADqEzd3dAiShC81kqAd2CE4dNiIaPLAnZGUoQhonALIyacYiMCOyAACQAAQAACQAASAACAAAAAAAAAAAA==

> <PUBCHEM_IUPAC_OPENEYE_NAME>
3-(2-imidazo[1,2-b]pyridazin-3-ylethynyl)-4-methyl-N-[4-[(4-methylpiperazin-1-yl)methyl]-3-(trifluoromethyl)phenyl]benzamide;hydrochloride

> <PUBCHEM_IUPAC_CAS_NAME>
3-[2-(3-imidazo[1,2-b]pyridazinyl)ethynyl]-4-methyl-N-[4-[(4-methyl-1-piperazinyl)methyl]-3-(trifluoromethyl)phenyl]benzamide;hydrochloride

> <PUBCHEM_IUPAC_NAME_MARKUP>
3-(2-imidazo[1,2-b]pyridazin-3-ylethynyl)-4-methyl-<I>N</I>-[4-[(4-methylpiperazin-1-yl)methyl]-3-(trifluoromethyl)phenyl]benzamide;hydrochloride

> <PUBCHEM_IUPAC_NAME>
3-(2-imidazo[1,2-b]pyridazin-3-ylethynyl)-4-methyl-N-[4-[(4-methylpiperazin-1-yl)methyl]-3-(trifluoromethyl)phenyl]benzamide;hydrochloride

> <PUBCHEM_IUPAC_SYSTEMATIC_NAME>
3-(2-imidazo[1,2-b]pyridazin-3-ylethynyl)-4-methyl-N-[4-[(4-methylpiperazin-1-yl)methyl]-3-(trifluoromethyl)phenyl]benzamide;hydrochloride

> <PUBCHEM_IUPAC_TRADITIONAL_NAME>
3-(2-imidazo[1,2-b]pyridazin-3-ylethynyl)-4-methyl-N-[4-[(4-methylpiperazino)methyl]-3-(trifluoromethyl)phenyl]benzamide;hydrochloride

> <PUBCHEM_IUPAC_INCHI>
InChI=1S/C29H27F3N6O.ClH/c1-20-5-6-22(16-21(20)8-10-25-18-33-27-4-3-11-34-38(25)27)28(39)35-24-9-7-23(26(17-24)29(30,31)32)19-37-14-12-36(2)13-15-37;/h3-7,9,11,16-18H,12-15,19H2,1-2H3,(H,35,39);1H

> <PUBCHEM_IUPAC_INCHIKEY>
BWTNNZPNKQIADY-UHFFFAOYSA-N

> <PUBCHEM_EXACT_MASS>
568.1965217

> <PUBCHEM_MOLECULAR_FORMULA>
C29H28ClF3N6O

> <PUBCHEM_MOLECULAR_WEIGHT>
569.0

> <PUBCHEM_OPENEYE_CAN_SMILES>
CC1=C(C=C(C=C1)C(=O)NC2=CC(=C(C=C2)CN3CCN(CC3)C)C(F)(F)F)C#CC4=CN=C5N4N=CC=C5.Cl

> <PUBCHEM_OPENEYE_ISO_SMILES>
CC1=C(C=C(C=C1)C(=O)NC2=CC(=C(C=C2)CN3CCN(CC3)C)C(F)(F)F)C#CC4=CN=C5N4N=CC=C5.Cl

> <PUBCHEM_CACTVS_TPSA>
65.8

> <PUBCHEM_MONOISOTOPIC_WEIGHT>
568.1965217

> <PUBCHEM_TOTAL_CHARGE>
0

> <PUBCHEM_HEAVY_ATOM_COUNT>
40

> <PUBCHEM_ATOM_DEF_STEREO_COUNT>
0

> <PUBCHEM_ATOM_UDEF_STEREO_COUNT>
0

> <PUBCHEM_BOND_DEF_STEREO_COUNT>
0

> <PUBCHEM_BOND_UDEF_STEREO_COUNT>
0

> <PUBCHEM_ISOTOPIC_ATOM_COUNT>
0

> <PUBCHEM_COMPONENT_COUNT>
2

> <PUBCHEM_CACTVS_TAUTO_COUNT>
-1

> <PUBCHEM_COORDINATE_TYPE>
1
5
255

> <PUBCHEM_BONDANNOTATIONS>
10  35  8
10  37  8
11  40  8
17  19  8
17  20  8
19  21  8
20  22  8
21  23  8
22  23  8
26  27  8
26  28  8
27  29  8
28  31  8
29  30  8
30  31  8
34  37  8
35  38  8
38  39  8
39  40  8
9  11  8
9  34  8
9  35  8

$$$$
208908
  -OEChem-11282412102D

 66 70  0     0  0  0  0  0  0999 V2000
   12.3832   -2.5389    0.0000 Cl  0  0  0  0  0  0  0  0  0  0  0  0
    2.9136   -2.6366    0.0000 S   0  0  0  0  0  0  0  0  0  0  0  0
   18.4623   -1.1091    0.0000 F   0  0  0  0  0  0  0  0  0  0  0  0
    7.1010    0.5210    0.0000 O   0  0  0  0  0  0  0  0  0  0  0  0
    2.0000   -2.2299    0.0000 O   0  0  0  0  0  0  0  0  0  0  0  0
    3.8271   -3.0434    0.0000 O   0  0  0  0  0  0  0  0  0  0  0  0
   14.1267   -1.5590    0.0000 O   0  0  0  0  0  0  0  0  0  0  0  0
    4.7215   -0.7050    0.0000 N   0  0  0  0  0  0  0  0  0  0  0  0
   10.6859    0.4809    0.0000 N   0  0  0  0  0  0  0  0  0  0  0  0
   10.6975    3.5502    0.0000 N   0  0  0  0  0  0  0  0  0  0  0  0
   11.6036    1.9947    0.0000 N   0  0  0  0  0  0  0  0  0  0  0  0
    4.3148   -1.6186    0.0000 C   0  0  0  0  0  0  0  0  0  0  0  0
    3.3203   -1.7231    0.0000 C   0  0  0  0  0  0  0  0  0  0  0  0
    5.7161   -0.6005    0.0000 C   0  0  0  0  0  0  0  0  0  0  0  0
    6.1228    0.3131    0.0000 C   0  0  0  0  0  0  0  0  0  0  0  0
    8.0715    2.0155    0.0000 C   0  0  0  0  0  0  0  0  0  0  0  0
    7.2055    1.5155    0.0000 C   0  0  0  0  0  0  0  0  0  0  0  0
    9.8036    2.0155    0.0000 C   0  0  0  0  0  0  0  0  0  0  0  0
    8.9375    1.5155    0.0000 C   0  0  0  0  0  0  0  0  0  0  0  0
    5.6228    1.1791    0.0000 C   0  0  0  0  0  0  0  0  0  0  0  0
    6.2919    1.9222    0.0000 C   0  0  0  0  0  0  0  0  0  0  0  0
    9.8036    3.0155    0.0000 C   0  0  0  0  0  0  0  0  0  0  0  0
    8.0715    3.0155    0.0000 C   0  0  0  0  0  0  0  0  0  0  0  0
   10.6975    1.4808    0.0000 C   0  0  0  0  0  0  0  0  0  0  0  0
    2.5068   -3.5502    0.0000 C   0  0  0  0  0  0  0  0  0  0  0  0
    8.9375    3.5155    0.0000 C   0  0  0  0  0  0  0  0  0  0  0  0
   11.5461   -0.0291    0.0000 C   0  0  0  0  0  0  0  0  0  0  0  0
   11.6036    3.0363    0.0000 C   0  0  0  0  0  0  0  0  0  0  0  0
   11.5346   -1.0290    0.0000 C   0  0  0  0  0  0  0  0  0  0  0  0
   12.4179    0.4609    0.0000 C   0  0  0  0  0  0  0  0  0  0  0  0
   13.2665   -1.0490    0.0000 C   0  0  0  0  0  0  0  0  0  0  0  0
   12.3947   -1.5390    0.0000 C   0  0  0  0  0  0  0  0  0  0  0  0
   13.2781   -0.0491    0.0000 C   0  0  0  0  0  0  0  0  0  0  0  0
   14.9984   -1.0691    0.0000 C   0  0  0  0  0  0  0  0  0  0  0  0
   15.8586   -1.5790    0.0000 C   0  0  0  0  0  0  0  0  0  0  0  0
   16.7304   -1.0891    0.0000 C   0  0  0  0  0  0  0  0  0  0  0  0
   15.8470   -2.5790    0.0000 C   0  0  0  0  0  0  0  0  0  0  0  0
   17.5905   -1.5991    0.0000 C   0  0  0  0  0  0  0  0  0  0  0  0
   16.7072   -3.0890    0.0000 C   0  0  0  0  0  0  0  0  0  0  0  0
   17.5790   -2.5990    0.0000 C   0  0  0  0  0  0  0  0  0  0  0  0
    4.2716   -2.2370    0.0000 H   0  0  0  0  0  0  0  0  0  0  0  0
    4.9164   -1.7685    0.0000 H   0  0  0  0  0  0  0  0  0  0  0  0
    3.3635   -1.1046    0.0000 H   0  0  0  0  0  0  0  0  0  0  0  0
    2.7187   -1.5731    0.0000 H   0  0  0  0  0  0  0  0  0  0  0  0
    5.6728   -1.2190    0.0000 H   0  0  0  0  0  0  0  0  0  0  0  0
    6.3177   -0.7505    0.0000 H   0  0  0  0  0  0  0  0  0  0  0  0
    4.3571   -0.2034    0.0000 H   0  0  0  0  0  0  0  0  0  0  0  0
    8.9375    0.8955    0.0000 H   0  0  0  0  0  0  0  0  0  0  0  0
    5.0062    1.2439    0.0000 H   0  0  0  0  0  0  0  0  0  0  0  0
    6.1630    2.5287    0.0000 H   0  0  0  0  0  0  0  0  0  0  0  0
    7.5346    3.3255    0.0000 H   0  0  0  0  0  0  0  0  0  0  0  0
    1.9404   -3.2980    0.0000 H   0  0  0  0  0  0  0  0  0  0  0  0
    2.2546   -4.1166    0.0000 H   0  0  0  0  0  0  0  0  0  0  0  0
    3.0732   -3.8023    0.0000 H   0  0  0  0  0  0  0  0  0  0  0  0
    8.9375    4.1355    0.0000 H   0  0  0  0  0  0  0  0  0  0  0  0
   10.1454    0.1771    0.0000 H   0  0  0  0  0  0  0  0  0  0  0  0
   10.9941   -1.3328    0.0000 H   0  0  0  0  0  0  0  0  0  0  0  0
   12.4250    1.0808    0.0000 H   0  0  0  0  0  0  0  0  0  0  0  0
   12.1393    3.3484    0.0000 H   0  0  0  0  0  0  0  0  0  0  0  0
   13.8185    0.2547    0.0000 H   0  0  0  0  0  0  0  0  0  0  0  0
   15.4024   -0.5988    0.0000 H   0  0  0  0  0  0  0  0  0  0  0  0
   14.6054   -0.5895    0.0000 H   0  0  0  0  0  0  0  0  0  0  0  0
   16.7375   -0.4691    0.0000 H   0  0  0  0  0  0  0  0  0  0  0  0
   15.3066   -2.8827    0.0000 H   0  0  0  0  0  0  0  0  0  0  0  0
   16.7001   -3.7089    0.0000 H   0  0  0  0  0  0  0  0  0  0  0  0
   18.1123   -2.9152    0.0000 H   0  0  0  0  0  0  0  0  0  0  0  0
  1 32  1  0  0  0  0
  2  5  2  0  0  0  0
  2  6  2  0  0  0  0
  2 13  1  0  0  0  0
  2 25  1  0  0  0  0
  3 38  1  0  0  0  0
  4 15  1  0  0  0  0
  4 17  1  0  0  0  0
  7 31  1  0  0  0  0
  7 34  1  0  0  0  0
  8 12  1  0  0  0  0
  8 14  1  0  0  0  0
  8 47  1  0  0  0  0
  9 24  1  0  0  0  0
  9 27  1  0  0  0  0
  9 56  1  0  0  0  0
 10 22  1  0  0  0  0
 10 28  2  0  0  0  0
 11 24  2  0  0  0  0
 11 28  1  0  0  0  0
 12 13  1  0  0  0  0
 12 41  1  0  0  0  0
 12 42  1  0  0  0  0
 13 43  1  0  0  0  0
 13 44  1  0  0  0  0
 14 15  1  0  0  0  0
 14 45  1  0  0  0  0
 14 46  1  0  0  0  0
 15 20  2  0  0  0  0
 16 17  1  0  0  0  0
 16 19  2  0  0  0  0
 16 23  1  0  0  0  0
 17 21  2  0  0  0  0
 18 19  1  0  0  0  0
 18 22  2  0  0  0  0
 18 24  1  0  0  0  0
 19 48  1  0  0  0  0
 20 21  1  0  0  0  0
 20 49  1  0  0  0  0
 21 50  1  0  0  0  0
 22 26  1  0  0  0  0
 23 26  2  0  0  0  0
 23 51  1  0  0  0  0
 25 52  1  0  0  0  0
 25 53  1  0  0  0  0
 25 54  1  0  0  0  0
 26 55  1  0  0  0  0
 27 29  2  0  0  0  0
 27 30  1  0  0  0  0
 28 59  1  0  0  0  0
 29 32  1  0  0  0  0
 29 57  1  0  0  0  0
 30 33  2  0  0  0  0
 30 58  1  0  0  0  0
 31 32  2  0  0  0  0
 31 33  1  0  0  0  0
 33 60  1  0  0  0  0
 34 35  1  0  0  0  0
 34 61  1  0  0  0  0
 34 62  1  0  0  0  0
 35 36  2  0  0  0  0
 35 37  1  0  0  0  0
 36 38  1  0  0  0  0
 36 63  1  0  0  0  0
 37 39  2  0  0  0  0
 37 64  1  0  0  0  0
 38 40  2  0  0  0  0
 39 40  1  0  0  0  0
 39 65  1  0  0  0  0
 40 66  1  0  0  0  0
M  END
> <PUBCHEM_COMPOUND_CID>
208908

> <PUBCHEM_COMPOUND_CANONICALIZED>
1

> <PUBCHEM_CACTVS_COMPLEXITY>
898

> <PUBCHEM_CACTVS_HBOND_ACCEPTOR>
9

> <PUBCHEM_CACTVS_HBOND_DONOR>
2

> <PUBCHEM_CACTVS_ROTATABLE_BOND>
11

> <PUBCHEM_CACTVS_SUBSKEYS>
AAADceB7uQBEAAAAAAAAAAAAAAAAASAAAAA8YMEAAAAAAACx/AAAHwYQAAAADA7l3i639vbIFEqoA6ZzZHDCiCk1J/AJ2KG+b9iOLvPF//uHPSjs0BPY6ae42fOeCEACAAICCAAQgAQABAQQAAAAAAAAAA==

> <PUBCHEM_IUPAC_OPENEYE_NAME>
N-[3-chloro-4-[(3-fluorophenyl)methoxy]phenyl]-6-[5-[(2-methylsulfonylethylamino)methyl]-2-furyl]quinazolin-4-amine

> <PUBCHEM_IUPAC_CAS_NAME>
N-[3-chloro-4-[(3-fluorophenyl)methoxy]phenyl]-6-[5-[(2-methylsulfonylethylamino)methyl]-2-furanyl]-4-quinazolinamine

> <PUBCHEM_IUPAC_NAME_MARKUP>
<I>N</I>-[3-chloro-4-[(3-fluorophenyl)methoxy]phenyl]-6-[5-[(2-methylsulfonylethylamino)methyl]furan-2-yl]quinazolin-4-amine

> <PUBCHEM_IUPAC_NAME>
N-[3-chloro-4-[(3-fluorophenyl)methoxy]phenyl]-6-[5-[(2-methylsulfonylethylamino)methyl]furan-2-yl]quinazolin-4-amine

> <PUBCHEM_IUPAC_SYSTEMATIC_NAME>
N-[3-chloranyl-4-[(3-fluorophenyl)methoxy]phenyl]-6-[5-[(2-methylsulfonylethylamino)methyl]furan-2-yl]quinazolin-4-amine

> <PUBCHEM_IUPAC_TRADITIONAL_NAME>
[5-[4-[3-chloro-4-(3-fluorobenzyl)oxy-anilino]quinazolin-6-yl]-2-furyl]methyl-(2-mesylethyl)amine

> <PUBCHEM_IUPAC_INCHI>
InChI=1S/C29H26ClFN4O4S/c1-40(36,37)12-11-32-16-23-7-10-27(39-23)20-5-8-26-24(14-20)29(34-18-33-26)35-22-6-9-28(25(30)15-22)38-17-19-3-2-4-21(31)13-19/h2-10,13-15,18,32H,11-12,16-17H2,1H3,(H,33,34,35)

> <PUBCHEM_IUPAC_INCHIKEY>
BCFGMOOMADDAQU-UHFFFAOYSA-N

> <PUBCHEM_XLOGP3_AA>
5.1

> <PUBCHEM_EXACT_MASS>
580.1347324

> <PUBCHEM_MOLECULAR_FORMULA>
C29H26ClFN4O4S

> <PUBCHEM_MOLECULAR_WEIGHT>
581.1

> <PUBCHEM_OPENEYE_CAN_SMILES>
CS(=O)(=O)CCNCC1=CC=C(O1)C2=CC3=C(C=C2)N=CN=C3NC4=CC(=C(C=C4)OCC5=CC(=CC=C5)F)Cl

> <PUBCHEM_OPENEYE_ISO_SMILES>
CS(=O)(=O)CCNCC1=CC=C(O1)C2=CC3=C(C=C2)N=CN=C3NC4=CC(=C(C=C4)OCC5=CC(=CC=C5)F)Cl

> <PUBCHEM_CACTVS_TPSA>
115

> <PUBCHEM_MONOISOTOPIC_WEIGHT>
580.1347324

> <PUBCHEM_TOTAL_CHARGE>
0

> <PUBCHEM_HEAVY_ATOM_COUNT>
40

> <PUBCHEM_ATOM_DEF_STEREO_COUNT>
0

> <PUBCHEM_ATOM_UDEF_STEREO_COUNT>
0

> <PUBCHEM_BOND_DEF_STEREO_COUNT>
0

> <PUBCHEM_BOND_UDEF_STEREO_COUNT>
0

> <PUBCHEM_ISOTOPIC_ATOM_COUNT>
0

> <PUBCHEM_COMPONENT_COUNT>
1

> <PUBCHEM_CACTVS_TAUTO_COUNT>
-1

> <PUBCHEM_COORDINATE_TYPE>
1
5
255

> <PUBCHEM_BONDANNOTATIONS>
10  22  8
10  28  8
11  24  8
11  28  8
15  20  8
16  19  8
16  23  8
17  21  8
18  19  8
18  22  8
18  24  8
20  21  8
22  26  8
23  26  8
27  29  8
27  30  8
29  32  8
30  33  8
31  32  8
31  33  8
35  36  8
35  37  8
36  38  8
37  39  8
38  40  8
39  40  8
4  15  8
4  17  8

$$$$
3062316
  -OEChem-11282412102D

 59 62  0     0  0  0  0  0  0999 V2000
    5.4791   -4.5609    0.0000 Cl  0  0  0  0  0  0  0  0  0  0  0  0
    3.6180   -2.0963    0.0000 S   0  0  0  0  0  0  0  0  0  0  0  0
    5.4071    6.9915    0.0000 O   0  0  0  0  0  0  0  0  0  0  0  0
    4.8913   -3.7518    0.0000 O   0  0  0  0  0  0  0  0  0  0  0  0
    4.5411    4.4915    0.0000 N   0  0  0  0  0  0  0  0  0  0  0  0
    4.5411    2.4915    0.0000 N   0  0  0  0  0  0  0  0  0  0  0  0
    5.4071    0.9915    0.0000 N   0  0  0  0  0  0  0  0  0  0  0  0
    4.5411   -0.5085    0.0000 N   0  0  0  0  0  0  0  0  0  0  0  0
    2.8090   -0.5085    0.0000 N   0  0  0  0  0  0  0  0  0  0  0  0
    2.0000   -2.0963    0.0000 N   0  0  0  0  0  0  0  0  0  0  0  0
    3.4901   -4.7699    0.0000 N   0  0  0  0  0  0  0  0  0  0  0  0
    3.6750    3.9915    0.0000 C   0  0  0  0  0  0  0  0  0  0  0  0
    5.4071    3.9915    0.0000 C   0  0  0  0  0  0  0  0  0  0  0  0
    3.6750    2.9915    0.0000 C   0  0  0  0  0  0  0  0  0  0  0  0
    5.4071    2.9915    0.0000 C   0  0  0  0  0  0  0  0  0  0  0  0
    4.5411    5.4915    0.0000 C   0  0  0  0  0  0  0  0  0  0  0  0
    4.5411    1.4915    0.0000 C   0  0  0  0  0  0  0  0  0  0  0  0
    5.4071    5.9915    0.0000 C   0  0  0  0  0  0  0  0  0  0  0  0
    3.6750    0.9915    0.0000 C   0  0  0  0  0  0  0  0  0  0  0  0
    3.6750   -0.0085    0.0000 C   0  0  0  0  0  0  0  0  0  0  0  0
    5.4071   -0.0085    0.0000 C   0  0  0  0  0  0  0  0  0  0  0  0
    6.2731   -0.5085    0.0000 C   0  0  0  0  0  0  0  0  0  0  0  0
    2.8090   -1.5085    0.0000 C   0  0  0  0  0  0  0  0  0  0  0  0
    3.3090   -3.0473    0.0000 C   0  0  0  0  0  0  0  0  0  0  0  0
    4.0778   -5.5789    0.0000 C   0  0  0  0  0  0  0  0  0  0  0  0
    2.3090   -3.0473    0.0000 C   0  0  0  0  0  0  0  0  0  0  0  0
    3.6711   -6.4925    0.0000 C   0  0  0  0  0  0  0  0  0  0  0  0
    3.8968   -3.8564    0.0000 C   0  0  0  0  0  0  0  0  0  0  0  0
    5.0724   -5.4744    0.0000 C   0  0  0  0  0  0  0  0  0  0  0  0
    4.2589   -7.3015    0.0000 C   0  0  0  0  0  0  0  0  0  0  0  0
    2.6766   -6.5970    0.0000 C   0  0  0  0  0  0  0  0  0  0  0  0
    5.6602   -6.2834    0.0000 C   0  0  0  0  0  0  0  0  0  0  0  0
    5.2534   -7.1970    0.0000 C   0  0  0  0  0  0  0  0  0  0  0  0
    3.4630    4.5741    0.0000 H   0  0  0  0  0  0  0  0  0  0  0  0
    3.0645    3.8838    0.0000 H   0  0  0  0  0  0  0  0  0  0  0  0
    6.0177    3.8838    0.0000 H   0  0  0  0  0  0  0  0  0  0  0  0
    5.6192    4.5741    0.0000 H   0  0  0  0  0  0  0  0  0  0  0  0
    3.0645    3.0992    0.0000 H   0  0  0  0  0  0  0  0  0  0  0  0
    3.4630    2.4089    0.0000 H   0  0  0  0  0  0  0  0  0  0  0  0
    5.6192    2.4089    0.0000 H   0  0  0  0  0  0  0  0  0  0  0  0
    6.0177    3.0992    0.0000 H   0  0  0  0  0  0  0  0  0  0  0  0
    4.3290    6.0741    0.0000 H   0  0  0  0  0  0  0  0  0  0  0  0
    3.9305    5.3838    0.0000 H   0  0  0  0  0  0  0  0  0  0  0  0
    5.6192    5.4089    0.0000 H   0  0  0  0  0  0  0  0  0  0  0  0
    6.0177    6.0992    0.0000 H   0  0  0  0  0  0  0  0  0  0  0  0
    3.1381    1.3015    0.0000 H   0  0  0  0  0  0  0  0  0  0  0  0
    5.9440    7.3015    0.0000 H   0  0  0  0  0  0  0  0  0  0  0  0
    2.2721   -0.1985    0.0000 H   0  0  0  0  0  0  0  0  0  0  0  0
    5.9631   -1.0454    0.0000 H   0  0  0  0  0  0  0  0  0  0  0  0
    6.8100   -0.8185    0.0000 H   0  0  0  0  0  0  0  0  0  0  0  0
    6.5831    0.0284    0.0000 H   0  0  0  0  0  0  0  0  0  0  0  0
    1.9446   -3.5489    0.0000 H   0  0  0  0  0  0  0  0  0  0  0  0
    2.8735   -4.8347    0.0000 H   0  0  0  0  0  0  0  0  0  0  0  0
    4.0067   -7.8679    0.0000 H   0  0  0  0  0  0  0  0  0  0  0  0
    2.6118   -5.9804    0.0000 H   0  0  0  0  0  0  0  0  0  0  0  0
    2.0600   -6.6618    0.0000 H   0  0  0  0  0  0  0  0  0  0  0  0
    2.7414   -7.2136    0.0000 H   0  0  0  0  0  0  0  0  0  0  0  0
    6.2768   -6.2186    0.0000 H   0  0  0  0  0  0  0  0  0  0  0  0
    5.6178   -7.6986    0.0000 H   0  0  0  0  0  0  0  0  0  0  0  0
  1 29  1  0  0  0  0
  2 23  1  0  0  0  0
  2 24  1  0  0  0  0
  3 18  1  0  0  0  0
  3 47  1  0  0  0  0
  4 28  2  0  0  0  0
  5 12  1  0  0  0  0
  5 13  1  0  0  0  0
  5 16  1  0  0  0  0
  6 14  1  0  0  0  0
  6 15  1  0  0  0  0
  6 17  1  0  0  0  0
  7 17  2  0  0  0  0
  7 21  1  0  0  0  0
  8 20  1  0  0  0  0
  8 21  2  0  0  0  0
  9 20  1  0  0  0  0
  9 23  1  0  0  0  0
  9 48  1  0  0  0  0
 10 23  2  0  0  0  0
 10 26  1  0  0  0  0
 11 25  1  0  0  0  0
 11 28  1  0  0  0  0
 11 53  1  0  0  0  0
 12 14  1  0  0  0  0
 12 34  1  0  0  0  0
 12 35  1  0  0  0  0
 13 15  1  0  0  0  0
 13 36  1  0  0  0  0
 13 37  1  0  0  0  0
 14 38  1  0  0  0  0
 14 39  1  0  0  0  0
 15 40  1  0  0  0  0
 15 41  1  0  0  0  0
 16 18  1  0  0  0  0
 16 42  1  0  0  0  0
 16 43  1  0  0  0  0
 17 19  1  0  0  0  0
 18 44  1  0  0  0  0
 18 45  1  0  0  0  0
 19 20  2  0  0  0  0
 19 46  1  0  0  0  0
 21 22  1  0  0  0  0
 22 49  1  0  0  0  0
 22 50  1  0  0  0  0
 22 51  1  0  0  0  0
 24 26  2  0  0  0  0
 24 28  1  0  0  0  0
 25 27  2  0  0  0  0
 25 29  1  0  0  0  0
 26 52  1  0  0  0  0
 27 30  1  0  0  0  0
 27 31  1  0  0  0  0
 29 32  2  0  0  0  0
 30 33  2  0  0  0  0
 30 54  1  0  0  0  0
 31 55  1  0  0  0  0
 31 56  1  0  0  0  0
 31 57  1  0  0  0  0
 32 33  1  0  0  0  0
 32 58  1  0  0  0  0
 33 59  1  0  0  0  0
M  END
> <PUBCHEM_COMPOUND_CID>
3062316

> <PUBCHEM_COMPOUND_CANONICALIZED>
1

> <PUBCHEM_CACTVS_COMPLEXITY>
642

> <PUBCHEM_CACTVS_HBOND_ACCEPTOR>
9

> <PUBCHEM_CACTVS_HBOND_DONOR>
3

> <PUBCHEM_CACTVS_ROTATABLE_BOND>
7

> <PUBCHEM_CACTVS_SUBSKEYS>
AAADceB7sABEAAAAAAAAAAAAAAAAAWAAAAA8WIAAAAAAAAAB8AAAHgYQCAAADArh2yY/8ZfIEgisAjd3dACC8Kl1D7lJ2C04ZtiKeCrB29HUJIholALYyOcQgAAOAAAAIAACABAAAABAAAQAIAAAAAAAAA==

> <PUBCHEM_IUPAC_OPENEYE_NAME>
N-(2-chloro-6-methyl-phenyl)-2-[[6-[4-(2-hydroxyethyl)piperazin-1-yl]-2-methyl-pyrimidin-4-yl]amino]thiazole-5-carboxamide

> <PUBCHEM_IUPAC_CAS_NAME>
N-(2-chloro-6-methylphenyl)-2-[[6-[4-(2-hydroxyethyl)-1-piperazinyl]-2-methyl-4-pyrimidinyl]amino]-5-thiazolecarboxamide

> <PUBCHEM_IUPAC_NAME_MARKUP>
<I>N</I>-(2-chloro-6-methylphenyl)-2-[[6-[4-(2-hydroxyethyl)piperazin-1-yl]-2-methylpyrimidin-4-yl]amino]-1,3-thiazole-5-carboxamide

> <PUBCHEM_IUPAC_NAME>
N-(2-chloro-6-methylphenyl)-2-[[6-[4-(2-hydroxyethyl)piperazin-1-yl]-2-methylpyrimidin-4-yl]amino]-1,3-thiazole-5-carboxamide

> <PUBCHEM_IUPAC_SYSTEMATIC_NAME>
N-(2-chloranyl-6-methyl-phenyl)-2-[[6-[4-(2-hydroxyethyl)piperazin-1-yl]-2-methyl-pyrimidin-4-yl]amino]-1,3-thiazole-5-carboxamide

> <PUBCHEM_IUPAC_TRADITIONAL_NAME>
N-(2-chloro-6-methyl-phenyl)-2-[[6-[4-(2-hydroxyethyl)piperazino]-2-methyl-pyrimidin-4-yl]amino]thiazole-5-carboxamide

> <PUBCHEM_IUPAC_INCHI>
InChI=1S/C22H26ClN7O2S/c1-14-4-3-5-16(23)20(14)28-21(32)17-13-24-22(33-17)27-18-12-19(26-15(2)25-18)30-8-6-29(7-9-30)10-11-31/h3-5,12-13,31H,6-11H2,1-2H3,(H,28,32)(H,24,25,26,27)

> <PUBCHEM_IUPAC_INCHIKEY>
ZBNZXTGUTAYRHI-UHFFFAOYSA-N

> <PUBCHEM_XLOGP3_AA>
3.6

> <PUBCHEM_EXACT_MASS>
487.1557220

> <PUBCHEM_MOLECULAR_FORMULA>
C22H26ClN7O2S

> <PUBCHEM_MOLECULAR_WEIGHT>
488.0

> <PUBCHEM_OPENEYE_CAN_SMILES>
CC1=C(C(=CC=C1)Cl)NC(=O)C2=CN=C(S2)NC3=CC(=NC(=N3)C)N4CCN(CC4)CCO

> <PUBCHEM_OPENEYE_ISO_SMILES>
CC1=C(C(=CC=C1)Cl)NC(=O)C2=CN=C(S2)NC3=CC(=NC(=N3)C)N4CCN(CC4)CCO

> <PUBCHEM_CACTVS_TPSA>
135

> <PUBCHEM_MONOISOTOPIC_WEIGHT>
487.1557220

> <PUBCHEM_TOTAL_CHARGE>
0

> <PUBCHEM_HEAVY_ATOM_COUNT>
33

> <PUBCHEM_ATOM_DEF_STEREO_COUNT>
0

> <PUBCHEM_ATOM_UDEF_STEREO_COUNT>
0

> <PUBCHEM_BOND_DEF_STEREO_COUNT>
0

> <PUBCHEM_BOND_UDEF_STEREO_COUNT>
0

> <PUBCHEM_ISOTOPIC_ATOM_COUNT>
0

> <PUBCHEM_COMPONENT_COUNT>
1

> <PUBCHEM_CACTVS_TAUTO_COUNT>
-1

> <PUBCHEM_COORDINATE_TYPE>
1
5
255

> <PUBCHEM_BONDANNOTATIONS>
10  23  8
10  26  8
17  19  8
19  20  8
2  23  8
2  24  8
24  26  8
25  27  8
25  29  8
27  30  8
29  32  8
30  33  8
32  33  8
7  17  8
7  21  8
8  20  8
8  21  8

$$$$
9797919
  -OEChem-11282412102D

 40 42  0     0  0  0  0  0  0999 V2000
    8.0622    3.7500    0.0000 Cl  0  0  0  0  0  0  0  0  0  0  0  0
    6.3301   -0.2500    0.0000 O   0  0  0  0  0  0  0  0  0  0  0  0
    5.4641   -1.7500    0.0000 N   0  0  0  0  0  0  0  0  0  0  0  0
    8.0622   -0.2500    0.0000 N   0  0  0  0  0  0  0  0  0  0  0  0
    2.0000   -0.7500    0.0000 N   0  0  0  0  0  0  0  0  0  0  0  0
    6.3301   -2.2500    0.0000 C   0  0  0  0  0  0  0  0  0  0  0  0
    7.1962   -1.7500    0.0000 C   0  0  0  0  0  0  0  0  0  0  0  0
    4.5981   -2.2500    0.0000 C   0  0  0  0  0  0  0  0  0  0  0  0
    3.7320   -1.7500    0.0000 C   0  0  0  0  0  0  0  0  0  0  0  0
    6.3301   -3.2500    0.0000 C   0  0  0  0  0  0  0  0  0  0  0  0
    8.0622   -2.2500    0.0000 C   0  0  0  0  0  0  0  0  0  0  0  0
    7.1962   -0.7500    0.0000 C   0  0  0  0  0  0  0  0  0  0  0  0
    7.1962   -3.7500    0.0000 C   0  0  0  0  0  0  0  0  0  0  0  0
    8.0622   -3.2500    0.0000 C   0  0  0  0  0  0  0  0  0  0  0  0
    8.0622    0.7500    0.0000 C   0  0  0  0  0  0  0  0  0  0  0  0
    2.8660   -2.2500    0.0000 C   0  0  0  0  0  0  0  0  0  0  0  0
    3.7320   -0.7500    0.0000 C   0  0  0  0  0  0  0  0  0  0  0  0
    7.1962    1.2500    0.0000 C   0  0  0  0  0  0  0  0  0  0  0  0
    8.9282    1.2500    0.0000 C   0  0  0  0  0  0  0  0  0  0  0  0
    2.0000   -1.7500    0.0000 C   0  0  0  0  0  0  0  0  0  0  0  0
    2.8660   -0.2500    0.0000 C   0  0  0  0  0  0  0  0  0  0  0  0
    7.1962    2.2500    0.0000 C   0  0  0  0  0  0  0  0  0  0  0  0
    8.9282    2.2500    0.0000 C   0  0  0  0  0  0  0  0  0  0  0  0
    8.0622    2.7500    0.0000 C   0  0  0  0  0  0  0  0  0  0  0  0
    4.1996   -2.7250    0.0000 H   0  0  0  0  0  0  0  0  0  0  0  0
    4.9966   -2.7250    0.0000 H   0  0  0  0  0  0  0  0  0  0  0  0
    5.4641   -1.1300    0.0000 H   0  0  0  0  0  0  0  0  0  0  0  0
    5.7932   -3.5600    0.0000 H   0  0  0  0  0  0  0  0  0  0  0  0
    8.5991   -1.9400    0.0000 H   0  0  0  0  0  0  0  0  0  0  0  0
    7.1962   -4.3700    0.0000 H   0  0  0  0  0  0  0  0  0  0  0  0
    8.5991   -3.5600    0.0000 H   0  0  0  0  0  0  0  0  0  0  0  0
    8.5991   -0.5600    0.0000 H   0  0  0  0  0  0  0  0  0  0  0  0
    2.8660   -2.8700    0.0000 H   0  0  0  0  0  0  0  0  0  0  0  0
    4.2690   -0.4400    0.0000 H   0  0  0  0  0  0  0  0  0  0  0  0
    6.6592    0.9400    0.0000 H   0  0  0  0  0  0  0  0  0  0  0  0
    9.4651    0.9400    0.0000 H   0  0  0  0  0  0  0  0  0  0  0  0
    1.4631   -2.0600    0.0000 H   0  0  0  0  0  0  0  0  0  0  0  0
    2.8660    0.3700    0.0000 H   0  0  0  0  0  0  0  0  0  0  0  0
    6.6592    2.5600    0.0000 H   0  0  0  0  0  0  0  0  0  0  0  0
    9.4651    2.5600    0.0000 H   0  0  0  0  0  0  0  0  0  0  0  0
  1 24  1  0  0  0  0
  2 12  2  0  0  0  0
  3  6  1  0  0  0  0
  3  8  1  0  0  0  0
  3 27  1  0  0  0  0
  4 12  1  0  0  0  0
  4 15  1  0  0  0  0
  4 32  1  0  0  0  0
  5 20  2  0  0  0  0
  5 21  1  0  0  0  0
  6  7  1  0  0  0  0
  6 10  2  0  0  0  0
  7 11  2  0  0  0  0
  7 12  1  0  0  0  0
  8  9  1  0  0  0  0
  8 25  1  0  0  0  0
  8 26  1  0  0  0  0
  9 16  2  0  0  0  0
  9 17  1  0  0  0  0
 10 13  1  0  0  0  0
 10 28  1  0  0  0  0
 11 14  1  0  0  0  0
 11 29  1  0  0  0  0
 13 14  2  0  0  0  0
 13 30  1  0  0  0  0
 14 31  1  0  0  0  0
 15 18  2  0  0  0  0
 15 19  1  0  0  0  0
 16 20  1  0  0  0  0
 16 33  1  0  0  0  0
 17 21  2  0  0  0  0
 17 34  1  0  0  0  0
 18 22  1  0  0  0  0
 18 35  1  0  0  0  0
 19 23  2  0  0  0  0
 19 36  1  0  0  0  0
 20 37  1  0  0  0  0
 21 38  1  0  0  0  0
 22 24  2  0  0  0  0
 22 39  1  0  0  0  0
 23 24  1  0  0  0  0
 23 40  1  0  0  0  0
M  END
> <PUBCHEM_COMPOUND_CID>
9797919

> <PUBCHEM_COMPOUND_CANONICALIZED>
1

> <PUBCHEM_CACTVS_COMPLEXITY>
392

> <PUBCHEM_CACTVS_HBOND_ACCEPTOR>
3

> <PUBCHEM_CACTVS_HBOND_DONOR>
2

> <PUBCHEM_CACTVS_ROTATABLE_BOND>
5

> <PUBCHEM_CACTVS_SUBSKEYS>
AAADceB7IAAEAAAAAAAAAAAAAAAAAAAAAAA8YIAAAAAAAAAB0AAAHgIQAAAADArBmiQ8wJLIEACoAjV3VACCgCA1ByAI2KE4ZtgIIHrB15GEIYhglADIyccYiACOAABAAAACAAAAAIAAAAQAAAAAAAAAAA==

> <PUBCHEM_IUPAC_OPENEYE_NAME>
N-(4-chlorophenyl)-2-(4-pyridylmethylamino)benzamide

> <PUBCHEM_IUPAC_CAS_NAME>
N-(4-chlorophenyl)-2-(pyridin-4-ylmethylamino)benzamide

> <PUBCHEM_IUPAC_NAME_MARKUP>
<I>N</I>-(4-chlorophenyl)-2-(pyridin-4-ylmethylamino)benzamide

> <PUBCHEM_IUPAC_NAME>
N-(4-chlorophenyl)-2-(pyridin-4-ylmethylamino)benzamide

> <PUBCHEM_IUPAC_SYSTEMATIC_NAME>
N-(4-chlorophenyl)-2-(pyridin-4-ylmethylamino)benzamide

> <PUBCHEM_IUPAC_TRADITIONAL_NAME>
N-(4-chlorophenyl)-2-(4-pyridylmethylamino)benzamide

> <PUBCHEM_IUPAC_INCHI>
InChI=1S/C19H16ClN3O/c20-15-5-7-16(8-6-15)23-19(24)17-3-1-2-4-18(17)22-13-14-9-11-21-12-10-14/h1-12,22H,13H2,(H,23,24)

> <PUBCHEM_IUPAC_INCHIKEY>
GGPZCOONYBPZEW-UHFFFAOYSA-N

> <PUBCHEM_XLOGP3_AA>
4.3

> <PUBCHEM_EXACT_MASS>
337.0981898

> <PUBCHEM_MOLECULAR_FORMULA>
C19H16ClN3O

> <PUBCHEM_MOLECULAR_WEIGHT>
337.8

> <PUBCHEM_OPENEYE_CAN_SMILES>
C1=CC=C(C(=C1)C(=O)NC2=CC=C(C=C2)Cl)NCC3=CC=NC=C3

> <PUBCHEM_OPENEYE_ISO_SMILES>
C1=CC=C(C(=C1)C(=O)NC2=CC=C(C=C2)Cl)NCC3=CC=NC=C3

> <PUBCHEM_CACTVS_TPSA>
54

> <PUBCHEM_MONOISOTOPIC_WEIGHT>
337.0981898

> <PUBCHEM_TOTAL_CHARGE>
0

> <PUBCHEM_HEAVY_ATOM_COUNT>
24

> <PUBCHEM_ATOM_DEF_STEREO_COUNT>
0

> <PUBCHEM_ATOM_UDEF_STEREO_COUNT>
0

> <PUBCHEM_BOND_DEF_STEREO_COUNT>
0

> <PUBCHEM_BOND_UDEF_STEREO_COUNT>
0

> <PUBCHEM_ISOTOPIC_ATOM_COUNT>
0

> <PUBCHEM_COMPONENT_COUNT>
1

> <PUBCHEM_CACTVS_TAUTO_COUNT>
-1

> <PUBCHEM_COORDINATE_TYPE>
1
5
255

> <PUBCHEM_BONDANNOTATIONS>
10  13  8
11  14  8
13  14  8
15  18  8
15  19  8
16  20  8
17  21  8
18  22  8
19  23  8
22  24  8
23  24  8
5  20  8
5  21  8
6  10  8
6  7  8
7  11  8
9  16  8
9  17  8

$$$$
53235510
  -OEChem-11282412102D

 69 72  0     0  0  0  0  0  0999 V2000
    2.0000   -1.5000    0.0000 Cl  0  0  0  0  0  0  0  0  0  0  0  0
    5.4641   -1.5000    0.0000 Cl  0  0  0  0  0  0  0  0  0  0  0  0
    5.4641   -3.5000    0.0000 O   0  0  0  0  0  0  0  0  0  0  0  0
    2.0000   -3.5000    0.0000 O   0  0  0  0  0  0  0  0  0  0  0  0
    5.4641   -0.5000    0.0000 O   0  0  0  0  0  0  0  0  0  0  0  0
   13.2583    4.0000    0.0000 N   0  0  0  0  0  0  0  0  0  0  0  0
   11.5263    3.0000    0.0000 N   0  0  0  0  0  0  0  0  0  0  0  0
    8.0622    1.0000    0.0000 N   0  0  0  0  0  0  0  0  0  0  0  0
    7.1962    2.5000    0.0000 N   0  0  0  0  0  0  0  0  0  0  0  0
    4.5981    1.0000    0.0000 N   0  0  0  0  0  0  0  0  0  0  0  0
    5.4641    2.5000    0.0000 N   0  0  0  0  0  0  0  0  0  0  0  0
    3.7320   -0.5000    0.0000 N   0  0  0  0  0  0  0  0  0  0  0  0
   12.3923    4.5000    0.0000 C   0  0  0  0  0  0  0  0  0  0  0  0
   13.2583    3.0000    0.0000 C   0  0  0  0  0  0  0  0  0  0  0  0
   11.5263    4.0000    0.0000 C   0  0  0  0  0  0  0  0  0  0  0  0
   12.3923    2.5000    0.0000 C   0  0  0  0  0  0  0  0  0  0  0  0
   14.1244    4.5000    0.0000 C   0  0  0  0  0  0  0  0  0  0  0  0
   10.6603    2.5000    0.0000 C   0  0  0  0  0  0  0  0  0  0  0  0
   14.9904    4.0000    0.0000 C   0  0  0  0  0  0  0  0  0  0  0  0
   10.6603    1.5000    0.0000 C   0  0  0  0  0  0  0  0  0  0  0  0
    9.7942    3.0000    0.0000 C   0  0  0  0  0  0  0  0  0  0  0  0
    9.7942    1.0000    0.0000 C   0  0  0  0  0  0  0  0  0  0  0  0
    8.9282    2.5000    0.0000 C   0  0  0  0  0  0  0  0  0  0  0  0
    8.9282    1.5000    0.0000 C   0  0  0  0  0  0  0  0  0  0  0  0
    7.1962    1.5000    0.0000 C   0  0  0  0  0  0  0  0  0  0  0  0
    6.3301    1.0000    0.0000 C   0  0  0  0  0  0  0  0  0  0  0  0
    5.4641    1.5000    0.0000 C   0  0  0  0  0  0  0  0  0  0  0  0
    6.3301    3.0000    0.0000 C   0  0  0  0  0  0  0  0  0  0  0  0
    4.5981    0.0000    0.0000 C   0  0  0  0  0  0  0  0  0  0  0  0
    3.7320   -1.5000    0.0000 C   0  0  0  0  0  0  0  0  0  0  0  0
    3.7320    1.5000    0.0000 C   0  0  0  0  0  0  0  0  0  0  0  0
    2.8660   -2.0000    0.0000 C   0  0  0  0  0  0  0  0  0  0  0  0
    4.5981   -2.0000    0.0000 C   0  0  0  0  0  0  0  0  0  0  0  0
    4.5981   -3.0000    0.0000 C   0  0  0  0  0  0  0  0  0  0  0  0
    2.8660   -3.0000    0.0000 C   0  0  0  0  0  0  0  0  0  0  0  0
    3.7320   -3.5000    0.0000 C   0  0  0  0  0  0  0  0  0  0  0  0
    5.4641   -4.5000    0.0000 C   0  0  0  0  0  0  0  0  0  0  0  0
    2.0000   -4.5000    0.0000 C   0  0  0  0  0  0  0  0  0  0  0  0
   12.7908    4.9750    0.0000 H   0  0  0  0  0  0  0  0  0  0  0  0
   11.9938    4.9750    0.0000 H   0  0  0  0  0  0  0  0  0  0  0  0
   13.4704    2.4174    0.0000 H   0  0  0  0  0  0  0  0  0  0  0  0
   13.8689    3.1077    0.0000 H   0  0  0  0  0  0  0  0  0  0  0  0
   11.3142    4.5826    0.0000 H   0  0  0  0  0  0  0  0  0  0  0  0
   10.9157    3.8923    0.0000 H   0  0  0  0  0  0  0  0  0  0  0  0
   11.9938    2.0250    0.0000 H   0  0  0  0  0  0  0  0  0  0  0  0
   12.7908    2.0250    0.0000 H   0  0  0  0  0  0  0  0  0  0  0  0
   14.5229    4.9750    0.0000 H   0  0  0  0  0  0  0  0  0  0  0  0
   13.7258    4.9750    0.0000 H   0  0  0  0  0  0  0  0  0  0  0  0
   14.6804    3.4631    0.0000 H   0  0  0  0  0  0  0  0  0  0  0  0
   15.5273    3.6900    0.0000 H   0  0  0  0  0  0  0  0  0  0  0  0
   15.3004    4.5369    0.0000 H   0  0  0  0  0  0  0  0  0  0  0  0
   11.1972    1.1900    0.0000 H   0  0  0  0  0  0  0  0  0  0  0  0
    9.7942    3.6200    0.0000 H   0  0  0  0  0  0  0  0  0  0  0  0
    9.7942    0.3800    0.0000 H   0  0  0  0  0  0  0  0  0  0  0  0
    8.3913    2.8100    0.0000 H   0  0  0  0  0  0  0  0  0  0  0  0
    8.0622    0.3800    0.0000 H   0  0  0  0  0  0  0  0  0  0  0  0
    6.3301    0.3800    0.0000 H   0  0  0  0  0  0  0  0  0  0  0  0
    6.3301    3.6200    0.0000 H   0  0  0  0  0  0  0  0  0  0  0  0
    4.0420    2.0369    0.0000 H   0  0  0  0  0  0  0  0  0  0  0  0
    3.1951    1.8100    0.0000 H   0  0  0  0  0  0  0  0  0  0  0  0
    3.4220    0.9631    0.0000 H   0  0  0  0  0  0  0  0  0  0  0  0
    3.1951   -0.1900    0.0000 H   0  0  0  0  0  0  0  0  0  0  0  0
    3.7320   -4.1200    0.0000 H   0  0  0  0  0  0  0  0  0  0  0  0
    4.8441   -4.5000    0.0000 H   0  0  0  0  0  0  0  0  0  0  0  0
    5.4641   -5.1200    0.0000 H   0  0  0  0  0  0  0  0  0  0  0  0
    6.0841   -4.5000    0.0000 H   0  0  0  0  0  0  0  0  0  0  0  0
    1.3800   -4.5000    0.0000 H   0  0  0  0  0  0  0  0  0  0  0  0
    2.0000   -5.1200    0.0000 H   0  0  0  0  0  0  0  0  0  0  0  0
    2.6200   -4.5000    0.0000 H   0  0  0  0  0  0  0  0  0  0  0  0
  1 32  1  0  0  0  0
  2 33  1  0  0  0  0
  3 34  1  0  0  0  0
  3 37  1  0  0  0  0
  4 35  1  0  0  0  0
  4 38  1  0  0  0  0
  5 29  2  0  0  0  0
  6 13  1  0  0  0  0
  6 14  1  0  0  0  0
  6 17  1  0  0  0  0
  7 15  1  0  0  0  0
  7 16  1  0  0  0  0
  7 18  1  0  0  0  0
  8 24  1  0  0  0  0
  8 25  1  0  0  0  0
  8 56  1  0  0  0  0
  9 25  1  0  0  0  0
  9 28  2  0  0  0  0
 10 27  1  0  0  0  0
 10 29  1  0  0  0  0
 10 31  1  0  0  0  0
 11 27  2  0  0  0  0
 11 28  1  0  0  0  0
 12 29  1  0  0  0  0
 12 30  1  0  0  0  0
 12 62  1  0  0  0  0
 13 15  1  0  0  0  0
 13 39  1  0  0  0  0
 13 40  1  0  0  0  0
 14 16  1  0  0  0  0
 14 41  1  0  0  0  0
 14 42  1  0  0  0  0
 15 43  1  0  0  0  0
 15 44  1  0  0  0  0
 16 45  1  0  0  0  0
 16 46  1  0  0  0  0
 17 19  1  0  0  0  0
 17 47  1  0  0  0  0
 17 48  1  0  0  0  0
 18 20  2  0  0  0  0
 18 21  1  0  0  0  0
 19 49  1  0  0  0  0
 19 50  1  0  0  0  0
 19 51  1  0  0  0  0
 20 22  1  0  0  0  0
 20 52  1  0  0  0  0
 21 23  2  0  0  0  0
 21 53  1  0  0  0  0
 22 24  2  0  0  0  0
 22 54  1  0  0  0  0
 23 24  1  0  0  0  0
 23 55  1  0  0  0  0
 25 26  2  0  0  0  0
 26 27  1  0  0  0  0
 26 57  1  0  0  0  0
 28 58  1  0  0  0  0
 30 32  2  0  0  0  0
 30 33  1  0  0  0  0
 31 59  1  0  0  0  0
 31 60  1  0  0  0  0
 31 61  1  0  0  0  0
 32 35  1  0  0  0  0
 33 34  2  0  0  0  0
 34 36  1  0  0  0  0
 35 36  2  0  0  0  0
 36 63  1  0  0  0  0
 37 64  1  0  0  0  0
 37 65  1  0  0  0  0
 37 66  1  0  0  0  0
 38 67  1  0  0  0  0
 38 68  1  0  0  0  0
 38 69  1  0  0  0  0
M  END
> <PUBCHEM_COMPOUND_CID>
53235510

> <PUBCHEM_COMPOUND_CANONICALIZED>
1

> <PUBCHEM_CACTVS_COMPLEXITY>
724

> <PUBCHEM_CACTVS_HBOND_ACCEPTOR>
8

> <PUBCHEM_CACTVS_HBOND_DONOR>
2

> <PUBCHEM_CACTVS_ROTATABLE_BOND>
8

> <PUBCHEM_CACTVS_SUBSKEYS>
AAADceB7sAAGAAAAAAAAAAAAAAAAAAAAAAA8eIEAAAAAAAAB0AAAHgIQAAAACA7BkiY39pfIFACoACZjdACCiCkxJuAJ2CA+b5iMb2PF+9vUNChv1x/I6CeQcA8AACCACgCACBAAQQAUAQAQIAAAAAAAAA==

> <PUBCHEM_IUPAC_OPENEYE_NAME>
3-(2,6-dichloro-3,5-dimethoxy-phenyl)-1-[6-[4-(4-ethylpiperazin-1-yl)anilino]pyrimidin-4-yl]-1-methyl-urea

> <PUBCHEM_IUPAC_CAS_NAME>
3-(2,6-dichloro-3,5-dimethoxyphenyl)-1-[6-[4-(4-ethyl-1-piperazinyl)anilino]-4-pyrimidinyl]-1-methylurea

> <PUBCHEM_IUPAC_NAME_MARKUP>
3-(2,6-dichloro-3,5-dimethoxyphenyl)-1-[6-[4-(4-ethylpiperazin-1-yl)anilino]pyrimidin-4-yl]-1-methylurea

> <PUBCHEM_IUPAC_NAME>
3-(2,6-dichloro-3,5-dimethoxyphenyl)-1-[6-[4-(4-ethylpiperazin-1-yl)anilino]pyrimidin-4-yl]-1-methylurea

> <PUBCHEM_IUPAC_SYSTEMATIC_NAME>
3-[2,6-bis(chloranyl)-3,5-dimethoxy-phenyl]-1-[6-[[4-(4-ethylpiperazin-1-yl)phenyl]amino]pyrimidin-4-yl]-1-methyl-urea

> <PUBCHEM_IUPAC_TRADITIONAL_NAME>
3-(2,6-dichloro-3,5-dimethoxy-phenyl)-1-[6-[4-(4-ethylpiperazino)anilino]pyrimidin-4-yl]-1-methyl-urea

> <PUBCHEM_IUPAC_INCHI>
InChI=1S/C26H31Cl2N7O3/c1-5-34-10-12-35(13-11-34)18-8-6-17(7-9-18)31-21-15-22(30-16-29-21)33(2)26(36)32-25-23(27)19(37-3)14-20(38-4)24(25)28/h6-9,14-16H,5,10-13H2,1-4H3,(H,32,36)(H,29,30,31)

> <PUBCHEM_IUPAC_INCHIKEY>
QADPYRIHXKWUSV-UHFFFAOYSA-N

> <PUBCHEM_XLOGP3_AA>
4.7

> <PUBCHEM_EXACT_MASS>
559.1865433

> <PUBCHEM_MOLECULAR_FORMULA>
C26H31Cl2N7O3

> <PUBCHEM_MOLECULAR_WEIGHT>
560.5

> <PUBCHEM_OPENEYE_CAN_SMILES>
CCN1CCN(CC1)C2=CC=C(C=C2)NC3=CC(=NC=N3)N(C)C(=O)NC4=C(C(=CC(=C4Cl)OC)OC)Cl

> <PUBCHEM_OPENEYE_ISO_SMILES>
CCN1CCN(CC1)C2=CC=C(C=C2)NC3=CC(=NC=N3)N(C)C(=O)NC4=C(C(=CC(=C4Cl)OC)OC)Cl

> <PUBCHEM_CACTVS_TPSA>
95.1

> <PUBCHEM_MONOISOTOPIC_WEIGHT>
559.1865433

> <PUBCHEM_TOTAL_CHARGE>
0

> <PUBCHEM_HEAVY_ATOM_COUNT>
38

> <PUBCHEM_ATOM_DEF_STEREO_COUNT>
0

> <PUBCHEM_ATOM_UDEF_STEREO_COUNT>
0

> <PUBCHEM_BOND_DEF_STEREO_COUNT>
0

> <PUBCHEM_BOND_UDEF_STEREO_COUNT>
0

> <PUBCHEM_ISOTOPIC_ATOM_COUNT>
0

> <PUBCHEM_COMPONENT_COUNT>
1

> <PUBCHEM_CACTVS_TAUTO_COUNT>
-1

> <PUBCHEM_COORDINATE_TYPE>
1
5
255

> <PUBCHEM_BONDANNOTATIONS>
11  27  8
11  28  8
18  20  8
18  21  8
20  22  8
21  23  8
22  24  8
23  24  8
25  26  8
26  27  8
30  32  8
30  33  8
32  35  8
33  34  8
34  36  8
35  36  8
9  25  8
9  28  8

$$$$
54758501
  -OEChem-11282412102D

 61 65  0     0  0  0  0  0  0999 V2000
   11.6065    1.8853    0.0000 S   0  0  0  0  0  0  0  0  0  0  0  0
    9.7942    0.6900    0.0000 O   0  0  0  0  0  0  0  0  0  0  0  0
    9.7942   -2.3100    0.0000 O   0  0  0  0  0  0  0  0  0  0  0  0
    4.5981    1.6900    0.0000 N   0  0  0  0  0  0  0  0  0  0  0  0
    2.8660    0.6900    0.0000 N   0  0  0  0  0  0  0  0  0  0  0  0
    8.0622    3.6900    0.0000 N   0  0  0  0  0  0  0  0  0  0  0  0
    9.7942    3.6900    0.0000 N   0  0  0  0  0  0  0  0  0  0  0  0
    8.9282    2.1900    0.0000 N   0  0  0  0  0  0  0  0  0  0  0  0
    8.0622   -2.3100    0.0000 N   0  0  0  0  0  0  0  0  0  0  0  0
    4.5981    0.6900    0.0000 C   0  0  0  0  0  0  0  0  0  0  0  0
    3.7320    2.1900    0.0000 C   0  0  0  0  0  0  0  0  0  0  0  0
    3.7320    0.1900    0.0000 C   0  0  0  0  0  0  0  0  0  0  0  0
    2.8660    1.6900    0.0000 C   0  0  0  0  0  0  0  0  0  0  0  0
    5.4641    2.1900    0.0000 C   0  0  0  0  0  0  0  0  0  0  0  0
    2.0000    0.1900    0.0000 C   0  0  0  0  0  0  0  0  0  0  0  0
    6.3301    1.6900    0.0000 C   0  0  0  0  0  0  0  0  0  0  0  0
    5.4641    3.1900    0.0000 C   0  0  0  0  0  0  0  0  0  0  0  0
    7.1962    2.1900    0.0000 C   0  0  0  0  0  0  0  0  0  0  0  0
    6.3301    3.6900    0.0000 C   0  0  0  0  0  0  0  0  0  0  0  0
    7.1962    3.1900    0.0000 C   0  0  0  0  0  0  0  0  0  0  0  0
    8.9282    3.1900    0.0000 C   0  0  0  0  0  0  0  0  0  0  0  0
   10.6603    3.1900    0.0000 C   0  0  0  0  0  0  0  0  0  0  0  0
   10.6603    2.1900    0.0000 C   0  0  0  0  0  0  0  0  0  0  0  0
    9.7942    1.6900    0.0000 C   0  0  0  0  0  0  0  0  0  0  0  0
   11.6065    3.4947    0.0000 C   0  0  0  0  0  0  0  0  0  0  0  0
    8.9282    0.1900    0.0000 C   0  0  0  0  0  0  0  0  0  0  0  0
   12.1901    2.6900    0.0000 C   0  0  0  0  0  0  0  0  0  0  0  0
    8.9282   -0.8100    0.0000 C   0  0  0  0  0  0  0  0  0  0  0  0
    8.0622   -1.3100    0.0000 C   0  0  0  0  0  0  0  0  0  0  0  0
    8.0622    0.6900    0.0000 C   0  0  0  0  0  0  0  0  0  0  0  0
    7.1962   -0.8100    0.0000 C   0  0  0  0  0  0  0  0  0  0  0  0
    7.1962    0.1900    0.0000 C   0  0  0  0  0  0  0  0  0  0  0  0
    8.9282   -2.8100    0.0000 C   0  0  0  0  0  0  0  0  0  0  0  0
    8.9282   -3.8100    0.0000 C   0  0  0  0  0  0  0  0  0  0  0  0
    9.7942   -4.3100    0.0000 C   0  0  0  0  0  0  0  0  0  0  0  0
    4.8101    0.1074    0.0000 H   0  0  0  0  0  0  0  0  0  0  0  0
    5.2087    0.7977    0.0000 H   0  0  0  0  0  0  0  0  0  0  0  0
    4.1306    2.6650    0.0000 H   0  0  0  0  0  0  0  0  0  0  0  0
    3.3335    2.6650    0.0000 H   0  0  0  0  0  0  0  0  0  0  0  0
    3.3335   -0.2849    0.0000 H   0  0  0  0  0  0  0  0  0  0  0  0
    4.1306   -0.2849    0.0000 H   0  0  0  0  0  0  0  0  0  0  0  0
    2.6540    2.2726    0.0000 H   0  0  0  0  0  0  0  0  0  0  0  0
    2.2554    1.5823    0.0000 H   0  0  0  0  0  0  0  0  0  0  0  0
    1.6900    0.7269    0.0000 H   0  0  0  0  0  0  0  0  0  0  0  0
    1.4631   -0.1200    0.0000 H   0  0  0  0  0  0  0  0  0  0  0  0
    2.3100   -0.3469    0.0000 H   0  0  0  0  0  0  0  0  0  0  0  0
    6.3301    1.0700    0.0000 H   0  0  0  0  0  0  0  0  0  0  0  0
    4.9272    3.5000    0.0000 H   0  0  0  0  0  0  0  0  0  0  0  0
    7.7331    1.8800    0.0000 H   0  0  0  0  0  0  0  0  0  0  0  0
    6.3301    4.3100    0.0000 H   0  0  0  0  0  0  0  0  0  0  0  0
    8.0622    4.3100    0.0000 H   0  0  0  0  0  0  0  0  0  0  0  0
   11.7991    4.0841    0.0000 H   0  0  0  0  0  0  0  0  0  0  0  0
   12.8101    2.6900    0.0000 H   0  0  0  0  0  0  0  0  0  0  0  0
    9.4651   -1.1200    0.0000 H   0  0  0  0  0  0  0  0  0  0  0  0
    8.0622    1.3100    0.0000 H   0  0  0  0  0  0  0  0  0  0  0  0
    6.6592   -1.1200    0.0000 H   0  0  0  0  0  0  0  0  0  0  0  0
    6.6592    0.5000    0.0000 H   0  0  0  0  0  0  0  0  0  0  0  0
    7.5252   -2.6200    0.0000 H   0  0  0  0  0  0  0  0  0  0  0  0
    8.3913   -4.1200    0.0000 H   0  0  0  0  0  0  0  0  0  0  0  0
    9.7942   -4.9300    0.0000 H   0  0  0  0  0  0  0  0  0  0  0  0
   10.3312   -4.0000    0.0000 H   0  0  0  0  0  0  0  0  0  0  0  0
  1 23  1  0  0  0  0
  1 27  1  0  0  0  0
  2 24  1  0  0  0  0
  2 26  1  0  0  0  0
  3 33  2  0  0  0  0
  4 10  1  0  0  0  0
  4 11  1  0  0  0  0
  4 14  1  0  0  0  0
  5 12  1  0  0  0  0
  5 13  1  0  0  0  0
  5 15  1  0  0  0  0
  6 20  1  0  0  0  0
  6 21  1  0  0  0  0
  6 51  1  0  0  0  0
  7 21  2  0  0  0  0
  7 22  1  0  0  0  0
  8 21  1  0  0  0  0
  8 24  2  0  0  0  0
  9 29  1  0  0  0  0
  9 33  1  0  0  0  0
  9 58  1  0  0  0  0
 10 12  1  0  0  0  0
 10 36  1  0  0  0  0
 10 37  1  0  0  0  0
 11 13  1  0  0  0  0
 11 38  1  0  0  0  0
 11 39  1  0  0  0  0
 12 40  1  0  0  0  0
 12 41  1  0  0  0  0
 13 42  1  0  0  0  0
 13 43  1  0  0  0  0
 14 16  2  0  0  0  0
 14 17  1  0  0  0  0
 15 44  1  0  0  0  0
 15 45  1  0  0  0  0
 15 46  1  0  0  0  0
 16 18  1  0  0  0  0
 16 47  1  0  0  0  0
 17 19  2  0  0  0  0
 17 48  1  0  0  0  0
 18 20  2  0  0  0  0
 18 49  1  0  0  0  0
 19 20  1  0  0  0  0
 19 50  1  0  0  0  0
 22 23  2  0  0  0  0
 22 25  1  0  0  0  0
 23 24  1  0  0  0  0
 25 27  2  0  0  0  0
 25 52  1  0  0  0  0
 26 28  1  0  0  0  0
 26 30  2  0  0  0  0
 27 53  1  0  0  0  0
 28 29  2  0  0  0  0
 28 54  1  0  0  0  0
 29 31  1  0  0  0  0
 30 32  1  0  0  0  0
 30 55  1  0  0  0  0
 31 32  2  0  0  0  0
 31 56  1  0  0  0  0
 32 57  1  0  0  0  0
 33 34  1  0  0  0  0
 34 35  2  0  0  0  0
 34 59  1  0  0  0  0
 35 60  1  0  0  0  0
 35 61  1  0  0  0  0
M  END
> <PUBCHEM_COMPOUND_CID>
54758501

> <PUBCHEM_COMPOUND_CANONICALIZED>
1

> <PUBCHEM_CACTVS_COMPLEXITY>
712

> <PUBCHEM_CACTVS_HBOND_ACCEPTOR>
8

> <PUBCHEM_CACTVS_HBOND_DONOR>
2

> <PUBCHEM_CACTVS_ROTATABLE_BOND>
7

> <PUBCHEM_CACTVS_SUBSKEYS>
AAADceB7sABAAAAAAAAAAAAAAAAAASAAAAA8eIEAAAAAAFgB/AAAHgQQAAAACAzF1gSz17fIFAisASVydACDqKkhKrBJmD4+bNiMbqLk+duePCzu1Bvo6KeQUAMAAACAAgAAAAAAAQAEAAAAAAAAAAAAAA==

> <PUBCHEM_IUPAC_OPENEYE_NAME>
N-[3-[2-[4-(4-methylpiperazin-1-yl)anilino]thieno[3,2-d]pyrimidin-4-yl]oxyphenyl]prop-2-enamide

> <PUBCHEM_IUPAC_CAS_NAME>
N-[3-[[2-[4-(4-methyl-1-piperazinyl)anilino]-4-thieno[3,2-d]pyrimidinyl]oxy]phenyl]-2-propenamide

> <PUBCHEM_IUPAC_NAME_MARKUP>
<I>N</I>-[3-[2-[4-(4-methylpiperazin-1-yl)anilino]thieno[3,2-d]pyrimidin-4-yl]oxyphenyl]prop-2-enamide

> <PUBCHEM_IUPAC_NAME>
N-[3-[2-[4-(4-methylpiperazin-1-yl)anilino]thieno[3,2-d]pyrimidin-4-yl]oxyphenyl]prop-2-enamide

> <PUBCHEM_IUPAC_SYSTEMATIC_NAME>
N-[3-[2-[[4-(4-methylpiperazin-1-yl)phenyl]amino]thieno[3,2-d]pyrimidin-4-yl]oxyphenyl]prop-2-enamide

> <PUBCHEM_IUPAC_TRADITIONAL_NAME>
N-[3-[2-[4-(4-methylpiperazino)anilino]thieno[3,2-d]pyrimidin-4-yl]oxyphenyl]acrylamide

> <PUBCHEM_IUPAC_INCHI>
InChI=1S/C26H26N6O2S/c1-3-23(33)27-19-5-4-6-21(17-19)34-25-24-22(11-16-35-24)29-26(30-25)28-18-7-9-20(10-8-18)32-14-12-31(2)13-15-32/h3-11,16-17H,1,12-15H2,2H3,(H,27,33)(H,28,29,30)

> <PUBCHEM_IUPAC_INCHIKEY>
FDMQDKQUTRLUBU-UHFFFAOYSA-N

> <PUBCHEM_XLOGP3_AA>
4.7

> <PUBCHEM_EXACT_MASS>
486.18379527

> <PUBCHEM_MOLECULAR_FORMULA>
C26H26N6O2S

> <PUBCHEM_MOLECULAR_WEIGHT>
486.6

> <PUBCHEM_OPENEYE_CAN_SMILES>
CN1CCN(CC1)C2=CC=C(C=C2)NC3=NC4=C(C(=N3)OC5=CC=CC(=C5)NC(=O)C=C)SC=C4

> <PUBCHEM_OPENEYE_ISO_SMILES>
CN1CCN(CC1)C2=CC=C(C=C2)NC3=NC4=C(C(=N3)OC5=CC=CC(=C5)NC(=O)C=C)SC=C4

> <PUBCHEM_CACTVS_TPSA>
111

> <PUBCHEM_MONOISOTOPIC_WEIGHT>
486.18379527

> <PUBCHEM_TOTAL_CHARGE>
0

> <PUBCHEM_HEAVY_ATOM_COUNT>
35

> <PUBCHEM_ATOM_DEF_STEREO_COUNT>
0

> <PUBCHEM_ATOM_UDEF_STEREO_COUNT>
0

> <PUBCHEM_BOND_DEF_STEREO_COUNT>
0

> <PUBCHEM_BOND_UDEF_STEREO_COUNT>
0

> <PUBCHEM_ISOTOPIC_ATOM_COUNT>
0

> <PUBCHEM_COMPONENT_COUNT>
1

> <PUBCHEM_CACTVS_TAUTO_COUNT>
-1

> <PUBCHEM_COORDINATE_TYPE>
1
5
255

> <PUBCHEM_BONDANNOTATIONS>
1  23  8
1  27  8
14  16  8
14  17  8
16  18  8
17  19  8
18  20  8
19  20  8
22  23  8
22  25  8
23  24  8
25  27  8
26  28  8
26  30  8
28  29  8
29  31  8
30  32  8
31  32  8
7  21  8
7  22  8
8  21  8
8  24  8

$$$$
6456015
  -OEChem-11282412102D

 71 72  0     1  0  0  0  0  0999 V2000
    0.0000    2.6200    0.0000 F   0  0  0  0  0  0  0  0  0  0  0  0
    6.5992    6.0816    0.0000 O   0  0  0  0  0  0  0  0  0  0  0  0
    5.1279    1.6200    0.0000 O   0  0  0  0  0  0  0  0  0  0  0  0
    6.5886   10.6572    0.0000 O   0  0  0  0  0  0  0  0  0  0  0  0
    8.3206   11.6572    0.0000 O   0  0  0  0  0  0  0  0  0  0  0  0
    3.9905   12.1572    0.0000 O   0  0  0  0  0  0  0  0  0  0  0  0
    7.4546   13.1572    0.0000 O   0  0  0  0  0  0  0  0  0  0  0  0
    4.8566   10.6572    0.0000 O   0  0  0  0  0  0  0  0  0  0  0  0
   10.2029    6.1948    0.0000 N   0  0  0  0  0  0  0  0  0  0  0  0
    5.5754    2.9111    0.0000 N   0  0  0  0  0  0  0  0  0  0  0  0
    7.8843    4.9204    0.0000 N   0  0  0  0  0  0  0  0  0  0  0  0
    3.5443    0.8153    0.0000 N   0  0  0  0  0  0  0  0  0  0  0  0
    6.2361    4.3881    0.0000 C   0  0  0  0  0  0  0  0  0  0  0  0
    5.2418    4.4943    0.0000 C   0  0  0  0  0  0  0  0  0  0  0  0
    9.5325    5.4528    0.0000 C   0  0  0  0  0  0  0  0  0  0  0  0
    4.8335    3.5815    0.0000 C   0  0  0  0  0  0  0  0  0  0  0  0
    6.4423    3.4096    0.0000 C   0  0  0  0  0  0  0  0  0  0  0  0
    8.5547    5.6624    0.0000 C   0  0  0  0  0  0  0  0  0  0  0  0
   11.1807    5.9852    0.0000 C   0  0  0  0  0  0  0  0  0  0  0  0
    9.8956    7.1464    0.0000 C   0  0  0  0  0  0  0  0  0  0  0  0
    6.9065    5.1300    0.0000 C   0  0  0  0  0  0  0  0  0  0  0  0
    3.8550    3.3752    0.0000 C   0  0  0  0  0  0  0  0  0  0  0  0
    3.5443    2.4247    0.0000 C   0  0  0  0  0  0  0  0  0  0  0  0
    2.5981    2.1200    0.0000 C   0  0  0  0  0  0  0  0  0  0  0  0
    4.7433    5.3612    0.0000 C   0  0  0  0  0  0  0  0  0  0  0  0
    2.5981    1.1200    0.0000 C   0  0  0  0  0  0  0  0  0  0  0  0
    7.3552    3.0012    0.0000 C   0  0  0  0  0  0  0  0  0  0  0  0
    4.1279    1.6200    0.0000 C   0  0  0  0  0  0  0  0  0  0  0  0
   11.8511    6.7272    0.0000 C   0  0  0  0  0  0  0  0  0  0  0  0
   10.5660    7.8884    0.0000 C   0  0  0  0  0  0  0  0  0  0  0  0
    1.7320    2.6200    0.0000 C   0  0  0  0  0  0  0  0  0  0  0  0
    1.7320    0.6200    0.0000 C   0  0  0  0  0  0  0  0  0  0  0  0
    0.8660    2.1200    0.0000 C   0  0  0  0  0  0  0  0  0  0  0  0
    0.8660    1.1200    0.0000 C   0  0  0  0  0  0  0  0  0  0  0  0
    6.5886   11.6572    0.0000 C   0  0  1  0  0  0  0  0  0  0  0  0
    5.7226   12.1572    0.0000 C   0  0  0  0  0  0  0  0  0  0  0  0
    7.4546   12.1572    0.0000 C   0  0  0  0  0  0  0  0  0  0  0  0
    4.8566   11.6572    0.0000 C   0  0  0  0  0  0  0  0  0  0  0  0
    9.2993    4.8784    0.0000 H   0  0  0  0  0  0  0  0  0  0  0  0
   10.0577    5.1234    0.0000 H   0  0  0  0  0  0  0  0  0  0  0  0
    8.7880    6.2369    0.0000 H   0  0  0  0  0  0  0  0  0  0  0  0
    8.0295    5.9919    0.0000 H   0  0  0  0  0  0  0  0  0  0  0  0
    5.5096    2.2946    0.0000 H   0  0  0  0  0  0  0  0  0  0  0  0
   10.9475    5.4108    0.0000 H   0  0  0  0  0  0  0  0  0  0  0  0
   11.7059    5.6558    0.0000 H   0  0  0  0  0  0  0  0  0  0  0  0
    9.5147    7.6356    0.0000 H   0  0  0  0  0  0  0  0  0  0  0  0
    9.3476    6.8563    0.0000 H   0  0  0  0  0  0  0  0  0  0  0  0
    3.4409    3.8367    0.0000 H   0  0  0  0  0  0  0  0  0  0  0  0
    8.0749    4.3305    0.0000 H   0  0  0  0  0  0  0  0  0  0  0  0
    5.2808    5.6703    0.0000 H   0  0  0  0  0  0  0  0  0  0  0  0
    4.4342    5.8987    0.0000 H   0  0  0  0  0  0  0  0  0  0  0  0
    4.2058    5.0521    0.0000 H   0  0  0  0  0  0  0  0  0  0  0  0
    7.1020    2.4353    0.0000 H   0  0  0  0  0  0  0  0  0  0  0  0
    7.9211    2.7481    0.0000 H   0  0  0  0  0  0  0  0  0  0  0  0
    7.6083    3.5672    0.0000 H   0  0  0  0  0  0  0  0  0  0  0  0
    3.7369    0.2259    0.0000 H   0  0  0  0  0  0  0  0  0  0  0  0
   12.3112    6.3115    0.0000 H   0  0  0  0  0  0  0  0  0  0  0  0
   12.2668    7.1872    0.0000 H   0  0  0  0  0  0  0  0  0  0  0  0
   11.3911    7.1428    0.0000 H   0  0  0  0  0  0  0  0  0  0  0  0
   11.0260    7.4727    0.0000 H   0  0  0  0  0  0  0  0  0  0  0  0
   10.9816    8.3484    0.0000 H   0  0  0  0  0  0  0  0  0  0  0  0
   10.1060    8.3040    0.0000 H   0  0  0  0  0  0  0  0  0  0  0  0
    1.7320    3.2400    0.0000 H   0  0  0  0  0  0  0  0  0  0  0  0
    1.7320    0.0000    0.0000 H   0  0  0  0  0  0  0  0  0  0  0  0
    0.3291    0.8100    0.0000 H   0  0  0  0  0  0  0  0  0  0  0  0
    7.1255   11.3472    0.0000 H   0  0  0  0  0  0  0  0  0  0  0  0
    6.1211   12.6322    0.0000 H   0  0  0  0  0  0  0  0  0  0  0  0
    5.3240   12.6322    0.0000 H   0  0  0  0  0  0  0  0  0  0  0  0
    6.0517   10.3472    0.0000 H   0  0  0  0  0  0  0  0  0  0  0  0
    8.8576   11.9672    0.0000 H   0  0  0  0  0  0  0  0  0  0  0  0
    3.4536   11.8472    0.0000 H   0  0  0  0  0  0  0  0  0  0  0  0
  1 33  1  0  0  0  0
  2 21  2  0  0  0  0
  3 28  2  0  0  0  0
 35  4  1  1  0  0  0
  4 69  1  0  0  0  0
  5 37  1  0  0  0  0
  5 70  1  0  0  0  0
  6 38  1  0  0  0  0
  6 71  1  0  0  0  0
  7 37  2  0  0  0  0
  8 38  2  0  0  0  0
  9 15  1  0  0  0  0
  9 19  1  0  0  0  0
  9 20  1  0  0  0  0
 10 16  1  0  0  0  0
 10 17  1  0  0  0  0
 10 43  1  0  0  0  0
 11 18  1  0  0  0  0
 11 21  1  0  0  0  0
 11 49  1  0  0  0  0
 12 26  1  0  0  0  0
 12 28  1  0  0  0  0
 12 56  1  0  0  0  0
 13 14  1  0  0  0  0
 13 17  2  0  0  0  0
 13 21  1  0  0  0  0
 14 16  2  0  0  0  0
 14 25  1  0  0  0  0
 15 18  1  0  0  0  0
 15 39  1  0  0  0  0
 15 40  1  0  0  0  0
 16 22  1  0  0  0  0
 17 27  1  0  0  0  0
 18 41  1  0  0  0  0
 18 42  1  0  0  0  0
 19 29  1  0  0  0  0
 19 44  1  0  0  0  0
 19 45  1  0  0  0  0
 20 30  1  0  0  0  0
 20 46  1  0  0  0  0
 20 47  1  0  0  0  0
 22 23  2  0  0  0  0
 22 48  1  0  0  0  0
 23 24  1  0  0  0  0
 23 28  1  0  0  0  0
 24 26  2  0  0  0  0
 24 31  1  0  0  0  0
 25 50  1  0  0  0  0
 25 51  1  0  0  0  0
 25 52  1  0  0  0  0
 26 32  1  0  0  0  0
 27 53  1  0  0  0  0
 27 54  1  0  0  0  0
 27 55  1  0  0  0  0
 29 57  1  0  0  0  0
 29 58  1  0  0  0  0
 29 59  1  0  0  0  0
 30 60  1  0  0  0  0
 30 61  1  0  0  0  0
 30 62  1  0  0  0  0
 31 33  2  0  0  0  0
 31 63  1  0  0  0  0
 32 34  2  0  0  0  0
 32 64  1  0  0  0  0
 33 34  1  0  0  0  0
 34 65  1  0  0  0  0
 35 36  1  0  0  0  0
 35 37  1  0  0  0  0
 35 66  1  0  0  0  0
 36 38  1  0  0  0  0
 36 67  1  0  0  0  0
 36 68  1  0  0  0  0
M  END
> <PUBCHEM_COMPOUND_CID>
6456015

> <PUBCHEM_COMPOUND_CANONICALIZED>
1

> <PUBCHEM_CACTVS_COMPLEXITY>
765

> <PUBCHEM_CACTVS_HBOND_ACCEPTOR>
9

> <PUBCHEM_CACTVS_HBOND_DONOR>
6

> <PUBCHEM_CACTVS_ROTATABLE_BOND>
10

> <PUBCHEM_CACTVS_SUBSKEYS>
AAADcfB7uQAAAAAAAAAAAAAAAAAAAWLAAAAwAAAAAAAAAFgBwAAAHwAQCAAADBzhng4yyJPJkgCoAyXyXAKCgCAlAiAImaF4ZNgJcH7A1ZGUYYhltgDJycdfiICOgAAAAAACAAAAAAAAAAQAAAAAAAAAAA==

> <PUBCHEM_IUPAC_OPENEYE_NAME>
N-[2-(diethylamino)ethyl]-5-[(Z)-(5-fluoro-2-oxo-indolin-3-ylidene)methyl]-2,4-dimethyl-1H-pyrrole-3-carboxamide;(2S)-2-hydroxybutanedioic acid

> <PUBCHEM_IUPAC_CAS_NAME>
N-[2-(diethylamino)ethyl]-5-[(Z)-(5-fluoro-2-oxo-1H-indol-3-ylidene)methyl]-2,4-dimethyl-1H-pyrrole-3-carboxamide;(2S)-2-hydroxybutanedioic acid

> <PUBCHEM_IUPAC_NAME_MARKUP>
<I>N</I>-[2-(diethylamino)ethyl]-5-[(<I>Z</I>)-(5-fluoro-2-oxo-1<I>H</I>-indol-3-ylidene)methyl]-2,4-dimethyl-1<I>H</I>-pyrrole-3-carboxamide;(2<I>S</I>)-2-hydroxybutanedioic acid

> <PUBCHEM_IUPAC_NAME>
N-[2-(diethylamino)ethyl]-5-[(Z)-(5-fluoro-2-oxo-1H-indol-3-ylidene)methyl]-2,4-dimethyl-1H-pyrrole-3-carboxamide;(2S)-2-hydroxybutanedioic acid

> <PUBCHEM_IUPAC_SYSTEMATIC_NAME>
N-[2-(diethylamino)ethyl]-5-[(Z)-(5-fluoranyl-2-oxidanylidene-1H-indol-3-ylidene)methyl]-2,4-dimethyl-1H-pyrrole-3-carboxamide;(2S)-2-oxidanylbutanedioic acid

> <PUBCHEM_IUPAC_TRADITIONAL_NAME>
N-[2-(diethylamino)ethyl]-5-[(Z)-(5-fluoro-2-keto-indolin-3-ylidene)methyl]-2,4-dimethyl-1H-pyrrole-3-carboxamide;(2S)-2-hydroxysuccinic acid

> <PUBCHEM_IUPAC_INCHI>
InChI=1S/C22H27FN4O2.C4H6O5/c1-5-27(6-2)10-9-24-22(29)20-13(3)19(25-14(20)4)12-17-16-11-15(23)7-8-18(16)26-21(17)28;5-2(4(8)9)1-3(6)7/h7-8,11-12,25H,5-6,9-10H2,1-4H3,(H,24,29)(H,26,28);2,5H,1H2,(H,6,7)(H,8,9)/b17-12-;/t;2-/m.0/s1

> <PUBCHEM_IUPAC_INCHIKEY>
LBWFXVZLPYTWQI-IPOVEDGCSA-N

> <PUBCHEM_EXACT_MASS>
532.23332757

> <PUBCHEM_MOLECULAR_FORMULA>
C26H33FN4O7

> <PUBCHEM_MOLECULAR_WEIGHT>
532.6

> <PUBCHEM_OPENEYE_CAN_SMILES>
CCN(CC)CCNC(=O)C1=C(NC(=C1C)C=C2C3=C(C=CC(=C3)F)NC2=O)C.C(C(C(=O)O)O)C(=O)O

> <PUBCHEM_OPENEYE_ISO_SMILES>
CCN(CC)CCNC(=O)C1=C(NC(=C1C)/C=C\2/C3=C(C=CC(=C3)F)NC2=O)C.C([C@@H](C(=O)O)O)C(=O)O

> <PUBCHEM_CACTVS_TPSA>
172

> <PUBCHEM_MONOISOTOPIC_WEIGHT>
532.23332757

> <PUBCHEM_TOTAL_CHARGE>
0

> <PUBCHEM_HEAVY_ATOM_COUNT>
38

> <PUBCHEM_ATOM_DEF_STEREO_COUNT>
1

> <PUBCHEM_ATOM_UDEF_STEREO_COUNT>
0

> <PUBCHEM_BOND_DEF_STEREO_COUNT>
1

> <PUBCHEM_BOND_UDEF_STEREO_COUNT>
0

> <PUBCHEM_ISOTOPIC_ATOM_COUNT>
0

> <PUBCHEM_COMPONENT_COUNT>
2

> <PUBCHEM_CACTVS_TAUTO_COUNT>
-1

> <PUBCHEM_COORDINATE_TYPE>
1
5
255

> <PUBCHEM_BONDANNOTATIONS>
10  16  8
10  17  8
13  14  8
13  17  8
14  16  8
24  26  8
24  31  8
26  32  8
31  33  8
32  34  8
33  34  8
35  4  5

$$$$
10113978
  -OEChem-11282412102D

 54 57  0     0  0  0  0  0  0999 V2000
    3.7320    2.8450    0.0000 S   0  0  0  0  0  0  0  0  0  0  0  0
    4.7320    2.8450    0.0000 O   0  0  0  0  0  0  0  0  0  0  0  0
    2.7320    2.8450    0.0000 O   0  0  0  0  0  0  0  0  0  0  0  0
   11.3241   -2.1550    0.0000 N   0  0  0  0  0  0  0  0  0  0  0  0
    7.1962   -3.1550    0.0000 N   0  0  0  0  0  0  0  0  0  0  0  0
   10.7404   -2.9597    0.0000 N   0  0  0  0  0  0  0  0  0  0  0  0
    5.4641   -0.1550    0.0000 N   0  0  0  0  0  0  0  0  0  0  0  0
    6.3301   -1.6550    0.0000 N   0  0  0  0  0  0  0  0  0  0  0  0
    4.5981   -1.6550    0.0000 N   0  0  0  0  0  0  0  0  0  0  0  0
    3.7320    3.8450    0.0000 N   0  0  0  0  0  0  0  0  0  0  0  0
    9.7942   -1.6550    0.0000 C   0  0  0  0  0  0  0  0  0  0  0  0
    9.7942   -2.6550    0.0000 C   0  0  0  0  0  0  0  0  0  0  0  0
   10.7404   -1.3503    0.0000 C   0  0  0  0  0  0  0  0  0  0  0  0
    8.0622   -2.6550    0.0000 C   0  0  0  0  0  0  0  0  0  0  0  0
    8.9282   -3.1550    0.0000 C   0  0  0  0  0  0  0  0  0  0  0  0
    8.9282   -1.1550    0.0000 C   0  0  0  0  0  0  0  0  0  0  0  0
    8.0622   -1.6550    0.0000 C   0  0  0  0  0  0  0  0  0  0  0  0
   11.0511   -0.3997    0.0000 C   0  0  0  0  0  0  0  0  0  0  0  0
    6.3301   -2.6550    0.0000 C   0  0  0  0  0  0  0  0  0  0  0  0
    3.7320    1.8450    0.0000 C   0  0  0  0  0  0  0  0  0  0  0  0
   12.3241   -2.1550    0.0000 C   0  0  0  0  0  0  0  0  0  0  0  0
    2.8660    1.3450    0.0000 C   0  0  0  0  0  0  0  0  0  0  0  0
    4.5981    0.3450    0.0000 C   0  0  0  0  0  0  0  0  0  0  0  0
    7.1962   -4.1550    0.0000 C   0  0  0  0  0  0  0  0  0  0  0  0
    4.5981    1.3450    0.0000 C   0  0  0  0  0  0  0  0  0  0  0  0
    2.8660    0.3450    0.0000 C   0  0  0  0  0  0  0  0  0  0  0  0
    3.7320   -0.1550    0.0000 C   0  0  0  0  0  0  0  0  0  0  0  0
    5.4641   -1.1550    0.0000 C   0  0  0  0  0  0  0  0  0  0  0  0
    5.4641   -3.1550    0.0000 C   0  0  0  0  0  0  0  0  0  0  0  0
    2.0000    1.8450    0.0000 C   0  0  0  0  0  0  0  0  0  0  0  0
    4.5981   -2.6550    0.0000 C   0  0  0  0  0  0  0  0  0  0  0  0
    8.9282   -3.7750    0.0000 H   0  0  0  0  0  0  0  0  0  0  0  0
    8.9282   -0.5350    0.0000 H   0  0  0  0  0  0  0  0  0  0  0  0
    7.5252   -1.3450    0.0000 H   0  0  0  0  0  0  0  0  0  0  0  0
   11.6404   -0.5924    0.0000 H   0  0  0  0  0  0  0  0  0  0  0  0
   11.2437    0.1896    0.0000 H   0  0  0  0  0  0  0  0  0  0  0  0
   10.4618   -0.2071    0.0000 H   0  0  0  0  0  0  0  0  0  0  0  0
   12.3241   -2.7750    0.0000 H   0  0  0  0  0  0  0  0  0  0  0  0
   12.9441   -2.1550    0.0000 H   0  0  0  0  0  0  0  0  0  0  0  0
   12.3241   -1.5350    0.0000 H   0  0  0  0  0  0  0  0  0  0  0  0
    6.5762   -4.1550    0.0000 H   0  0  0  0  0  0  0  0  0  0  0  0
    7.1962   -4.7750    0.0000 H   0  0  0  0  0  0  0  0  0  0  0  0
    7.8162   -4.1550    0.0000 H   0  0  0  0  0  0  0  0  0  0  0  0
    5.1350    1.6550    0.0000 H   0  0  0  0  0  0  0  0  0  0  0  0
    2.3291    0.0350    0.0000 H   0  0  0  0  0  0  0  0  0  0  0  0
    3.7320   -0.7750    0.0000 H   0  0  0  0  0  0  0  0  0  0  0  0
    6.0010    0.1550    0.0000 H   0  0  0  0  0  0  0  0  0  0  0  0
    5.4641   -3.7750    0.0000 H   0  0  0  0  0  0  0  0  0  0  0  0
    2.3100    2.3819    0.0000 H   0  0  0  0  0  0  0  0  0  0  0  0
    1.4631    2.1550    0.0000 H   0  0  0  0  0  0  0  0  0  0  0  0
    1.6900    1.3081    0.0000 H   0  0  0  0  0  0  0  0  0  0  0  0
    4.0611   -2.9650    0.0000 H   0  0  0  0  0  0  0  0  0  0  0  0
    3.1951    4.1550    0.0000 H   0  0  0  0  0  0  0  0  0  0  0  0
    4.2690    4.1550    0.0000 H   0  0  0  0  0  0  0  0  0  0  0  0
  1  2  2  0  0  0  0
  1  3  2  0  0  0  0
  1 10  1  0  0  0  0
  1 20  1  0  0  0  0
  4  6  1  0  0  0  0
  4 13  1  0  0  0  0
  4 21  1  0  0  0  0
  5 14  1  0  0  0  0
  5 19  1  0  0  0  0
  5 24  1  0  0  0  0
  6 12  2  0  0  0  0
  7 23  1  0  0  0  0
  7 28  1  0  0  0  0
  7 47  1  0  0  0  0
  8 19  2  0  0  0  0
  8 28  1  0  0  0  0
  9 28  2  0  0  0  0
  9 31  1  0  0  0  0
 10 53  1  0  0  0  0
 10 54  1  0  0  0  0
 11 12  1  0  0  0  0
 11 13  2  0  0  0  0
 11 16  1  0  0  0  0
 12 15  1  0  0  0  0
 13 18  1  0  0  0  0
 14 15  2  0  0  0  0
 14 17  1  0  0  0  0
 15 32  1  0  0  0  0
 16 17  2  0  0  0  0
 16 33  1  0  0  0  0
 17 34  1  0  0  0  0
 18 35  1  0  0  0  0
 18 36  1  0  0  0  0
 18 37  1  0  0  0  0
 19 29  1  0  0  0  0
 20 22  2  0  0  0  0
 20 25  1  0  0  0  0
 21 38  1  0  0  0  0
 21 39  1  0  0  0  0
 21 40  1  0  0  0  0
 22 26  1  0  0  0  0
 22 30  1  0  0  0  0
 23 25  2  0  0  0  0
 23 27  1  0  0  0  0
 24 41  1  0  0  0  0
 24 42  1  0  0  0  0
 24 43  1  0  0  0  0
 25 44  1  0  0  0  0
 26 27  2  0  0  0  0
 26 45  1  0  0  0  0
 27 46  1  0  0  0  0
 29 31  2  0  0  0  0
 29 48  1  0  0  0  0
 30 49  1  0  0  0  0
 30 50  1  0  0  0  0
 30 51  1  0  0  0  0
 31 52  1  0  0  0  0
M  END
> <PUBCHEM_COMPOUND_CID>
10113978

> <PUBCHEM_COMPOUND_CANONICALIZED>
1

> <PUBCHEM_CACTVS_COMPLEXITY>
717

> <PUBCHEM_CACTVS_HBOND_ACCEPTOR>
8

> <PUBCHEM_CACTVS_HBOND_DONOR>
2

> <PUBCHEM_CACTVS_ROTATABLE_BOND>
5

> <PUBCHEM_CACTVS_SUBSKEYS>
AAADceB7sABAAAAAAAAAAAAAAAAAAWAAAAA8YIAAAAAAAFgB/AAAHAQYQAAADAjBXgQ/8ffIEAKiAzZnZHDShDkxgqAZ2Dg4ZJiIKOLA2dGEpAxomALIyCcQgIAOCAAAACQGAAAQAAAASAwAAAAAAAAAAA==

> <PUBCHEM_IUPAC_OPENEYE_NAME>
5-[[4-[(2,3-dimethylindazol-6-yl)-methyl-amino]pyrimidin-2-yl]amino]-2-methyl-benzenesulfonamide

> <PUBCHEM_IUPAC_CAS_NAME>
5-[[4-[(2,3-dimethyl-6-indazolyl)-methylamino]-2-pyrimidinyl]amino]-2-methylbenzenesulfonamide

> <PUBCHEM_IUPAC_NAME_MARKUP>
5-[[4-[(2,3-dimethylindazol-6-yl)-methylamino]pyrimidin-2-yl]amino]-2-methylbenzenesulfonamide

> <PUBCHEM_IUPAC_NAME>
5-[[4-[(2,3-dimethylindazol-6-yl)-methylamino]pyrimidin-2-yl]amino]-2-methylbenzenesulfonamide

> <PUBCHEM_IUPAC_SYSTEMATIC_NAME>
5-[[4-[(2,3-dimethylindazol-6-yl)-methyl-amino]pyrimidin-2-yl]amino]-2-methyl-benzenesulfonamide

> <PUBCHEM_IUPAC_TRADITIONAL_NAME>
5-[[4-[(2,3-dimethylindazol-6-yl)-methyl-amino]pyrimidin-2-yl]amino]-2-methyl-benzenesulfonamide

> <PUBCHEM_IUPAC_INCHI>
InChI=1S/C21H23N7O2S/c1-13-5-6-15(11-19(13)31(22,29)30)24-21-23-10-9-20(25-21)27(3)16-7-8-17-14(2)28(4)26-18(17)12-16/h5-12H,1-4H3,(H2,22,29,30)(H,23,24,25)

> <PUBCHEM_IUPAC_INCHIKEY>
CUIHSIWYWATEQL-UHFFFAOYSA-N

> <PUBCHEM_XLOGP3_AA>
3.1

> <PUBCHEM_EXACT_MASS>
437.16339418

> <PUBCHEM_MOLECULAR_FORMULA>
C21H23N7O2S

> <PUBCHEM_MOLECULAR_WEIGHT>
437.5

> <PUBCHEM_OPENEYE_CAN_SMILES>
CC1=C(C=C(C=C1)NC2=NC=CC(=N2)N(C)C3=CC4=NN(C(=C4C=C3)C)C)S(=O)(=O)N

> <PUBCHEM_OPENEYE_ISO_SMILES>
CC1=C(C=C(C=C1)NC2=NC=CC(=N2)N(C)C3=CC4=NN(C(=C4C=C3)C)C)S(=O)(=O)N

> <PUBCHEM_CACTVS_TPSA>
127

> <PUBCHEM_MONOISOTOPIC_WEIGHT>
437.16339418

> <PUBCHEM_TOTAL_CHARGE>
0

> <PUBCHEM_HEAVY_ATOM_COUNT>
31

> <PUBCHEM_ATOM_DEF_STEREO_COUNT>
0

> <PUBCHEM_ATOM_UDEF_STEREO_COUNT>
0

> <PUBCHEM_BOND_DEF_STEREO_COUNT>
0

> <PUBCHEM_BOND_UDEF_STEREO_COUNT>
0

> <PUBCHEM_ISOTOPIC_ATOM_COUNT>
0

> <PUBCHEM_COMPONENT_COUNT>
1

> <PUBCHEM_CACTVS_TAUTO_COUNT>
-1

> <PUBCHEM_COORDINATE_TYPE>
1
5
255

> <PUBCHEM_BONDANNOTATIONS>
11  12  8
11  13  8
11  16  8
12  15  8
14  15  8
14  17  8
16  17  8
19  29  8
20  22  8
20  25  8
22  26  8
23  25  8
23  27  8
26  27  8
29  31  8
4  13  8
4  6  8
6  12  8
8  19  8
8  28  8
9  28  8
9  31  8

$$$$
59215954
  -OEChem-11282412102D

 58 61  0     1  0  0  0  0  0999 V2000
    2.0000   -1.6780    0.0000 F   0  0  0  0  0  0  0  0  0  0  0  0
   13.6037    1.6329    0.0000 O   0  0  0  0  0  0  0  0  0  0  0  0
    8.5992    1.7836    0.0000 O   0  0  0  0  0  0  0  0  0  0  0  0
    7.1279   -2.6780    0.0000 O   0  0  0  0  0  0  0  0  0  0  0  0
   11.9574    2.1710    0.0000 N   0  0  0  0  0  0  0  0  0  0  0  0
    9.8843    0.6224    0.0000 N   0  0  0  0  0  0  0  0  0  0  0  0
   13.2466    3.3278    0.0000 N   0  0  0  0  0  0  0  0  0  0  0  0
    7.5754   -1.3869    0.0000 N   0  0  0  0  0  0  0  0  0  0  0  0
    5.5443   -3.4827    0.0000 N   0  0  0  0  0  0  0  0  0  0  0  0
   10.5547    1.3644    0.0000 C   0  0  1  0  0  0  0  0  0  0  0  0
   10.3485    2.3429    0.0000 C   0  0  0  0  0  0  0  0  0  0  0  0
   11.5491    1.2582    0.0000 C   0  0  0  0  0  0  0  0  0  0  0  0
   11.2154    2.8414    0.0000 C   0  0  0  0  0  0  0  0  0  0  0  0
   12.9359    2.3772    0.0000 C   0  0  0  0  0  0  0  0  0  0  0  0
    8.9065    0.8320    0.0000 C   0  0  0  0  0  0  0  0  0  0  0  0
    8.2361    0.0901    0.0000 C   0  0  0  0  0  0  0  0  0  0  0  0
    7.2418    0.1963    0.0000 C   0  0  0  0  0  0  0  0  0  0  0  0
    8.4423   -0.8884    0.0000 C   0  0  0  0  0  0  0  0  0  0  0  0
    6.8335   -0.7165    0.0000 C   0  0  0  0  0  0  0  0  0  0  0  0
    6.7433    1.0632    0.0000 C   0  0  0  0  0  0  0  0  0  0  0  0
    5.8550   -0.9228    0.0000 C   0  0  0  0  0  0  0  0  0  0  0  0
   14.2251    3.5340    0.0000 C   0  0  0  0  0  0  0  0  0  0  0  0
   12.5787    4.0721    0.0000 C   0  0  0  0  0  0  0  0  0  0  0  0
    9.3552   -1.2968    0.0000 C   0  0  0  0  0  0  0  0  0  0  0  0
    5.5443   -1.8733    0.0000 C   0  0  0  0  0  0  0  0  0  0  0  0
    4.5981   -2.1780    0.0000 C   0  0  0  0  0  0  0  0  0  0  0  0
    4.5981   -3.1780    0.0000 C   0  0  0  0  0  0  0  0  0  0  0  0
    6.1279   -2.6780    0.0000 C   0  0  0  0  0  0  0  0  0  0  0  0
    3.7320   -1.6780    0.0000 C   0  0  0  0  0  0  0  0  0  0  0  0
    3.7320   -3.6780    0.0000 C   0  0  0  0  0  0  0  0  0  0  0  0
    2.8660   -2.1780    0.0000 C   0  0  0  0  0  0  0  0  0  0  0  0
    2.8660   -3.1780    0.0000 C   0  0  0  0  0  0  0  0  0  0  0  0
   10.7759    0.7852    0.0000 H   0  0  0  0  0  0  0  0  0  0  0  0
   10.0973    2.9098    0.0000 H   0  0  0  0  0  0  0  0  0  0  0  0
    9.7585    2.1524    0.0000 H   0  0  0  0  0  0  0  0  0  0  0  0
   11.4191    0.6520    0.0000 H   0  0  0  0  0  0  0  0  0  0  0  0
   12.1384    1.0656    0.0000 H   0  0  0  0  0  0  0  0  0  0  0  0
   11.6769    3.2555    0.0000 H   0  0  0  0  0  0  0  0  0  0  0  0
   10.8519    3.3436    0.0000 H   0  0  0  0  0  0  0  0  0  0  0  0
   10.0749    0.0325    0.0000 H   0  0  0  0  0  0  0  0  0  0  0  0
    7.5096   -2.0034    0.0000 H   0  0  0  0  0  0  0  0  0  0  0  0
    7.2808    1.3723    0.0000 H   0  0  0  0  0  0  0  0  0  0  0  0
    6.4342    1.6007    0.0000 H   0  0  0  0  0  0  0  0  0  0  0  0
    6.2058    0.7541    0.0000 H   0  0  0  0  0  0  0  0  0  0  0  0
    5.4409   -0.4613    0.0000 H   0  0  0  0  0  0  0  0  0  0  0  0
   14.3529    2.9273    0.0000 H   0  0  0  0  0  0  0  0  0  0  0  0
   14.8317    3.6618    0.0000 H   0  0  0  0  0  0  0  0  0  0  0  0
   14.0972    4.1406    0.0000 H   0  0  0  0  0  0  0  0  0  0  0  0
   13.0402    4.4861    0.0000 H   0  0  0  0  0  0  0  0  0  0  0  0
   12.1647    4.5335    0.0000 H   0  0  0  0  0  0  0  0  0  0  0  0
   12.1173    3.6580    0.0000 H   0  0  0  0  0  0  0  0  0  0  0  0
    9.1020   -1.8627    0.0000 H   0  0  0  0  0  0  0  0  0  0  0  0
    9.9211   -1.5499    0.0000 H   0  0  0  0  0  0  0  0  0  0  0  0
    9.6083   -0.7308    0.0000 H   0  0  0  0  0  0  0  0  0  0  0  0
    5.7369   -4.0721    0.0000 H   0  0  0  0  0  0  0  0  0  0  0  0
    3.7320   -1.0580    0.0000 H   0  0  0  0  0  0  0  0  0  0  0  0
    3.7320   -4.2980    0.0000 H   0  0  0  0  0  0  0  0  0  0  0  0
    2.3291   -3.4880    0.0000 H   0  0  0  0  0  0  0  0  0  0  0  0
  1 31  1  0  0  0  0
  2 14  2  0  0  0  0
  3 15  2  0  0  0  0
  4 28  2  0  0  0  0
  5 12  1  0  0  0  0
  5 13  1  0  0  0  0
  5 14  1  0  0  0  0
 10  6  1  1  0  0  0
  6 15  1  0  0  0  0
  6 40  1  0  0  0  0
  7 14  1  0  0  0  0
  7 22  1  0  0  0  0
  7 23  1  0  0  0  0
  8 18  1  0  0  0  0
  8 19  1  0  0  0  0
  8 41  1  0  0  0  0
  9 27  1  0  0  0  0
  9 28  1  0  0  0  0
  9 55  1  0  0  0  0
 10 11  1  0  0  0  0
 10 12  1  0  0  0  0
 10 33  1  0  0  0  0
 11 13  1  0  0  0  0
 11 34  1  0  0  0  0
 11 35  1  0  0  0  0
 12 36  1  0  0  0  0
 12 37  1  0  0  0  0
 13 38  1  0  0  0  0
 13 39  1  0  0  0  0
 15 16  1  0  0  0  0
 16 17  1  0  0  0  0
 16 18  2  0  0  0  0
 17 19  2  0  0  0  0
 17 20  1  0  0  0  0
 18 24  1  0  0  0  0
 19 21  1  0  0  0  0
 20 42  1  0  0  0  0
 20 43  1  0  0  0  0
 20 44  1  0  0  0  0
 21 25  2  0  0  0  0
 21 45  1  0  0  0  0
 22 46  1  0  0  0  0
 22 47  1  0  0  0  0
 22 48  1  0  0  0  0
 23 49  1  0  0  0  0
 23 50  1  0  0  0  0
 23 51  1  0  0  0  0
 24 52  1  0  0  0  0
 24 53  1  0  0  0  0
 24 54  1  0  0  0  0
 25 26  1  0  0  0  0
 25 28  1  0  0  0  0
 26 27  2  0  0  0  0
 26 29  1  0  0  0  0
 27 30  1  0  0  0  0
 29 31  2  0  0  0  0
 29 56  1  0  0  0  0
 30 32  2  0  0  0  0
 30 57  1  0  0  0  0
 31 32  1  0  0  0  0
 32 58  1  0  0  0  0
M  END
> <PUBCHEM_COMPOUND_CID>
59215954

> <PUBCHEM_COMPOUND_CANONICALIZED>
1

> <PUBCHEM_CACTVS_COMPLEXITY>
803

> <PUBCHEM_CACTVS_HBOND_ACCEPTOR>
4

> <PUBCHEM_CACTVS_HBOND_DONOR>
3

> <PUBCHEM_CACTVS_ROTATABLE_BOND>
3

> <PUBCHEM_CACTVS_SUBSKEYS>
AAADceB7sQAAAAAAAAAAAAAAAAAAAWLFgAAwAAAAAAAAAFgBwAAAHwAQAAAADCjBngwzwJPJkACoAyVyVACCgCAlAiAImaE4ZNiIYHrA1ZGUIYholgLIyccciICOgAAAAAACAAAAAAAAAAQAAAAAAAAAAA==

> <PUBCHEM_IUPAC_OPENEYE_NAME>
N-[(3S)-1-(dimethylcarbamoyl)pyrrolidin-3-yl]-5-[(Z)-(5-fluoro-2-oxo-indolin-3-ylidene)methyl]-2,4-dimethyl-1H-pyrrole-3-carboxamide

> <PUBCHEM_IUPAC_CAS_NAME>
N-[(3S)-1-[dimethylamino(oxo)methyl]-3-pyrrolidinyl]-5-[(Z)-(5-fluoro-2-oxo-1H-indol-3-ylidene)methyl]-2,4-dimethyl-1H-pyrrole-3-carboxamide

> <PUBCHEM_IUPAC_NAME_MARKUP>
<I>N</I>-[(3<I>S</I>)-1-(dimethylcarbamoyl)pyrrolidin-3-yl]-5-[(<I>Z</I>)-(5-fluoro-2-oxo-1<I>H</I>-indol-3-ylidene)methyl]-2,4-dimethyl-1<I>H</I>-pyrrole-3-carboxamide

> <PUBCHEM_IUPAC_NAME>
N-[(3S)-1-(dimethylcarbamoyl)pyrrolidin-3-yl]-5-[(Z)-(5-fluoro-2-oxo-1H-indol-3-ylidene)methyl]-2,4-dimethyl-1H-pyrrole-3-carboxamide

> <PUBCHEM_IUPAC_SYSTEMATIC_NAME>
N-[(3S)-1-(dimethylcarbamoyl)pyrrolidin-3-yl]-5-[(Z)-(5-fluoranyl-2-oxidanylidene-1H-indol-3-ylidene)methyl]-2,4-dimethyl-1H-pyrrole-3-carboxamide

> <PUBCHEM_IUPAC_TRADITIONAL_NAME>
N-[(3S)-1-(dimethylcarbamoyl)pyrrolidin-3-yl]-5-[(Z)-(5-fluoro-2-keto-indolin-3-ylidene)methyl]-2,4-dimethyl-1H-pyrrole-3-carboxamide

> <PUBCHEM_IUPAC_INCHI>
InChI=1S/C23H26FN5O3/c1-12-19(10-17-16-9-14(24)5-6-18(16)27-21(17)30)25-13(2)20(12)22(31)26-15-7-8-29(11-15)23(32)28(3)4/h5-6,9-10,15,25H,7-8,11H2,1-4H3,(H,26,31)(H,27,30)/b17-10-/t15-/m0/s1

> <PUBCHEM_IUPAC_INCHIKEY>
KMIOJWCYOHBUJS-HAKPAVFJSA-N

> <PUBCHEM_XLOGP3_AA>
1.6

> <PUBCHEM_EXACT_MASS>
439.20196787

> <PUBCHEM_MOLECULAR_FORMULA>
C23H26FN5O3

> <PUBCHEM_MOLECULAR_WEIGHT>
439.5

> <PUBCHEM_OPENEYE_CAN_SMILES>
CC1=C(NC(=C1C(=O)NC2CCN(C2)C(=O)N(C)C)C)C=C3C4=C(C=CC(=C4)F)NC3=O

> <PUBCHEM_OPENEYE_ISO_SMILES>
CC1=C(NC(=C1C(=O)N[C@H]2CCN(C2)C(=O)N(C)C)C)/C=C\3/C4=C(C=CC(=C4)F)NC3=O

> <PUBCHEM_CACTVS_TPSA>
97.5

> <PUBCHEM_MONOISOTOPIC_WEIGHT>
439.20196787

> <PUBCHEM_TOTAL_CHARGE>
0

> <PUBCHEM_HEAVY_ATOM_COUNT>
32

> <PUBCHEM_ATOM_DEF_STEREO_COUNT>
1

> <PUBCHEM_ATOM_UDEF_STEREO_COUNT>
0

> <PUBCHEM_BOND_DEF_STEREO_COUNT>
1

> <PUBCHEM_BOND_UDEF_STEREO_COUNT>
0

> <PUBCHEM_ISOTOPIC_ATOM_COUNT>
0

> <PUBCHEM_COMPONENT_COUNT>
1

> <PUBCHEM_CACTVS_TAUTO_COUNT>
53

> <PUBCHEM_COORDINATE_TYPE>
1
5
255

> <PUBCHEM_BONDANNOTATIONS>
16  17  8
16  18  8
17  19  8
26  27  8
26  29  8
27  30  8
29  31  8
30  32  8
31  32  8
10  6  5
8  18  8
8  19  8

$$$$
71621331
  -OEChem-11282412102D

 53 56  0     1  0  0  0  0  0999 V2000
    7.6651   -4.1486    0.0000 O   0  0  0  0  0  0  0  0  0  0  0  0
    7.8779    4.1113    0.0000 O   0  0  0  0  0  0  0  0  0  0  0  0
    4.5852    5.1875    0.0000 O   0  0  0  0  0  0  0  0  0  0  0  0
    5.9422   -3.9705    0.0000 N   0  0  0  0  0  0  0  0  0  0  0  0
    4.6783   -1.7126    0.0000 N   0  0  0  0  0  0  0  0  0  0  0  0
    5.2619   -0.9079    0.0000 N   0  0  0  0  0  0  0  0  0  0  0  0
    2.8660   -1.9079    0.0000 N   0  0  0  0  0  0  0  0  0  0  0  0
    2.0000   -0.4079    0.0000 N   0  0  0  0  0  0  0  0  0  0  0  0
    2.8660    1.0921    0.0000 N   0  0  0  0  0  0  0  0  0  0  0  0
    4.9889   -2.6632    0.0000 C   0  0  1  0  0  0  0  0  0  0  0  0
    4.4026   -3.4732    0.0000 C   0  0  0  0  0  0  0  0  0  0  0  0
    5.9405   -2.9705    0.0000 C   0  0  0  0  0  0  0  0  0  0  0  0
    4.9917   -4.2812    0.0000 C   0  0  0  0  0  0  0  0  0  0  0  0
    3.7320   -1.4079    0.0000 C   0  0  0  0  0  0  0  0  0  0  0  0
    6.7523   -4.5569    0.0000 C   0  0  0  0  0  0  0  0  0  0  0  0
    3.7320   -0.4079    0.0000 C   0  0  0  0  0  0  0  0  0  0  0  0
    4.6783   -0.1032    0.0000 C   0  0  0  0  0  0  0  0  0  0  0  0
    6.6495   -5.5516    0.0000 C   0  0  0  0  0  0  0  0  0  0  0  0
    2.8660    0.0921    0.0000 C   0  0  0  0  0  0  0  0  0  0  0  0
    2.0000   -1.4079    0.0000 C   0  0  0  0  0  0  0  0  0  0  0  0
    4.9889    0.8473    0.0000 C   0  0  0  0  0  0  0  0  0  0  0  0
    7.4595   -6.1380    0.0000 C   0  0  0  0  0  0  0  0  0  0  0  0
    5.2996    1.7978    0.0000 C   0  0  0  0  0  0  0  0  0  0  0  0
    5.6103    2.7484    0.0000 C   0  0  0  0  0  0  0  0  0  0  0  0
    4.9424    3.4927    0.0000 C   0  0  0  0  0  0  0  0  0  0  0  0
    6.5888    2.9546    0.0000 C   0  0  0  0  0  0  0  0  0  0  0  0
    6.8994    3.9051    0.0000 C   0  0  0  0  0  0  0  0  0  0  0  0
    5.2531    4.4432    0.0000 C   0  0  0  0  0  0  0  0  0  0  0  0
    6.2316    4.6494    0.0000 C   0  0  0  0  0  0  0  0  0  0  0  0
    8.1886    5.0618    0.0000 C   0  0  0  0  0  0  0  0  0  0  0  0
    4.8959    6.1380    0.0000 C   0  0  0  0  0  0  0  0  0  0  0  0
    5.4266   -2.2240    0.0000 H   0  0  0  0  0  0  0  0  0  0  0  0
    3.9411   -3.0591    0.0000 H   0  0  0  0  0  0  0  0  0  0  0  0
    3.9425   -3.8889    0.0000 H   0  0  0  0  0  0  0  0  0  0  0  0
    6.5572   -3.0343    0.0000 H   0  0  0  0  0  0  0  0  0  0  0  0
    6.0684   -2.3639    0.0000 H   0  0  0  0  0  0  0  0  0  0  0  0
    4.4553   -4.5921    0.0000 H   0  0  0  0  0  0  0  0  0  0  0  0
    5.2449   -4.8472    0.0000 H   0  0  0  0  0  0  0  0  0  0  0  0
    6.0835   -5.8048    0.0000 H   0  0  0  0  0  0  0  0  0  0  0  0
    1.4631   -1.7179    0.0000 H   0  0  0  0  0  0  0  0  0  0  0  0
    2.3291    1.4021    0.0000 H   0  0  0  0  0  0  0  0  0  0  0  0
    3.4030    1.4021    0.0000 H   0  0  0  0  0  0  0  0  0  0  0  0
    7.3958   -6.7547    0.0000 H   0  0  0  0  0  0  0  0  0  0  0  0
    8.0255   -5.8849    0.0000 H   0  0  0  0  0  0  0  0  0  0  0  0
    4.3357    3.3648    0.0000 H   0  0  0  0  0  0  0  0  0  0  0  0
    7.0028    2.4931    0.0000 H   0  0  0  0  0  0  0  0  0  0  0  0
    6.4242    5.2387    0.0000 H   0  0  0  0  0  0  0  0  0  0  0  0
    8.7779    4.8692    0.0000 H   0  0  0  0  0  0  0  0  0  0  0  0
    8.3812    5.6512    0.0000 H   0  0  0  0  0  0  0  0  0  0  0  0
    7.5993    5.2545    0.0000 H   0  0  0  0  0  0  0  0  0  0  0  0
    5.4852    5.9454    0.0000 H   0  0  0  0  0  0  0  0  0  0  0  0
    5.0885    6.7273    0.0000 H   0  0  0  0  0  0  0  0  0  0  0  0
    4.3066    6.3306    0.0000 H   0  0  0  0  0  0  0  0  0  0  0  0
  1 15  2  0  0  0  0
  2 27  1  0  0  0  0
  2 30  1  0  0  0  0
  3 28  1  0  0  0  0
  3 31  1  0  0  0  0
  4 12  1  0  0  0  0
  4 13  1  0  0  0  0
  4 15  1  0  0  0  0
  5  6  1  0  0  0  0
 10  5  1  6  0  0  0
  5 14  1  0  0  0  0
  6 17  2  0  0  0  0
  7 14  2  0  0  0  0
  7 20  1  0  0  0  0
  8 19  1  0  0  0  0
  8 20  2  0  0  0  0
  9 19  1  0  0  0  0
  9 41  1  0  0  0  0
  9 42  1  0  0  0  0
 10 11  1  0  0  0  0
 10 12  1  0  0  0  0
 10 32  1  0  0  0  0
 11 13  1  0  0  0  0
 11 33  1  0  0  0  0
 11 34  1  0  0  0  0
 12 35  1  0  0  0  0
 12 36  1  0  0  0  0
 13 37  1  0  0  0  0
 13 38  1  0  0  0  0
 14 16  1  0  0  0  0
 15 18  1  0  0  0  0
 16 17  1  0  0  0  0
 16 19  2  0  0  0  0
 17 21  1  0  0  0  0
 18 22  2  0  0  0  0
 18 39  1  0  0  0  0
 20 40  1  0  0  0  0
 21 23  3  0  0  0  0
 22 43  1  0  0  0  0
 22 44  1  0  0  0  0
 23 24  1  0  0  0  0
 24 25  2  0  0  0  0
 24 26  1  0  0  0  0
 25 28  1  0  0  0  0
 25 45  1  0  0  0  0
 26 27  2  0  0  0  0
 26 46  1  0  0  0  0
 27 29  1  0  0  0  0
 28 29  2  0  0  0  0
 29 47  1  0  0  0  0
 30 48  1  0  0  0  0
 30 49  1  0  0  0  0
 30 50  1  0  0  0  0
 31 51  1  0  0  0  0
 31 52  1  0  0  0  0
 31 53  1  0  0  0  0
M  END
> <PUBCHEM_COMPOUND_CID>
71621331

> <PUBCHEM_COMPOUND_CANONICALIZED>
1

> <PUBCHEM_CACTVS_COMPLEXITY>
723

> <PUBCHEM_CACTVS_HBOND_ACCEPTOR>
7

> <PUBCHEM_CACTVS_HBOND_DONOR>
1

> <PUBCHEM_CACTVS_ROTATABLE_BOND>
6

> <PUBCHEM_CACTVS_SUBSKEYS>
AAADceB7sAAAAAAAAAAAAAAAAAAAAWLAAAA8QAAAAAAAAFgB/AAAHgAYAAAADCzBnwY3tt9IFADqEydzdAiSjCsxoKAd2CAuTNiMbyLE+dqUtChtzhfI6KeA4BwOAAABCAAAAAAAAAIQAAAAAAAAAAAAAA==

> <PUBCHEM_IUPAC_OPENEYE_NAME>
1-[(3S)-3-[4-amino-3-[2-(3,5-dimethoxyphenyl)ethynyl]pyrazolo[3,4-d]pyrimidin-1-yl]pyrrolidin-1-yl]prop-2-en-1-one

> <PUBCHEM_IUPAC_CAS_NAME>
1-[(3S)-3-[4-amino-3-[2-(3,5-dimethoxyphenyl)ethynyl]-1-pyrazolo[3,4-d]pyrimidinyl]-1-pyrrolidinyl]-2-propen-1-one

> <PUBCHEM_IUPAC_NAME_MARKUP>
1-[(3<I>S</I>)-3-[4-amino-3-[2-(3,5-dimethoxyphenyl)ethynyl]pyrazolo[3,4-d]pyrimidin-1-yl]pyrrolidin-1-yl]prop-2-en-1-one

> <PUBCHEM_IUPAC_NAME>
1-[(3S)-3-[4-amino-3-[2-(3,5-dimethoxyphenyl)ethynyl]pyrazolo[3,4-d]pyrimidin-1-yl]pyrrolidin-1-yl]prop-2-en-1-one

> <PUBCHEM_IUPAC_SYSTEMATIC_NAME>
1-[(3S)-3-[4-azanyl-3-[2-(3,5-dimethoxyphenyl)ethynyl]pyrazolo[3,4-d]pyrimidin-1-yl]pyrrolidin-1-yl]prop-2-en-1-one

> <PUBCHEM_IUPAC_TRADITIONAL_NAME>
1-[(3S)-3-[4-amino-3-[2-(3,5-dimethoxyphenyl)ethynyl]pyrazolo[3,4-d]pyrimidin-1-yl]pyrrolidino]prop-2-en-1-one

> <PUBCHEM_IUPAC_INCHI>
InChI=1S/C22H22N6O3/c1-4-19(29)27-8-7-15(12-27)28-22-20(21(23)24-13-25-22)18(26-28)6-5-14-9-16(30-2)11-17(10-14)31-3/h4,9-11,13,15H,1,7-8,12H2,2-3H3,(H2,23,24,25)/t15-/m0/s1

> <PUBCHEM_IUPAC_INCHIKEY>
KEIPNCCJPRMIAX-HNNXBMFYSA-N

> <PUBCHEM_XLOGP3_AA>
2

> <PUBCHEM_EXACT_MASS>
418.17533859

> <PUBCHEM_MOLECULAR_FORMULA>
C22H22N6O3

> <PUBCHEM_MOLECULAR_WEIGHT>
418.4

> <PUBCHEM_OPENEYE_CAN_SMILES>
COC1=CC(=CC(=C1)C#CC2=NN(C3=NC=NC(=C23)N)C4CCN(C4)C(=O)C=C)OC

> <PUBCHEM_OPENEYE_ISO_SMILES>
COC1=CC(=CC(=C1)C#CC2=NN(C3=NC=NC(=C23)N)[C@H]4CCN(C4)C(=O)C=C)OC

> <PUBCHEM_CACTVS_TPSA>
108

> <PUBCHEM_MONOISOTOPIC_WEIGHT>
418.17533859

> <PUBCHEM_TOTAL_CHARGE>
0

> <PUBCHEM_HEAVY_ATOM_COUNT>
31

> <PUBCHEM_ATOM_DEF_STEREO_COUNT>
1

> <PUBCHEM_ATOM_UDEF_STEREO_COUNT>
0

> <PUBCHEM_BOND_DEF_STEREO_COUNT>
0

> <PUBCHEM_BOND_UDEF_STEREO_COUNT>
0

> <PUBCHEM_ISOTOPIC_ATOM_COUNT>
0

> <PUBCHEM_COMPONENT_COUNT>
1

> <PUBCHEM_CACTVS_TAUTO_COUNT>
5

> <PUBCHEM_COORDINATE_TYPE>
1
5
255

> <PUBCHEM_BONDANNOTATIONS>
14  16  8
16  17  8
16  19  8
24  25  8
24  26  8
25  28  8
26  27  8
27  29  8
28  29  8
10  5  6
5  14  8
5  6  8
6  17  8
7  14  8
7  20  8
8  19  8
8  20  8

$$$$
644241
  -OEChem-11282412102D

 61 65  0     0  0  0  0  0  0999 V2000
    2.3660    2.6921    0.0000 F   0  0  0  0  0  0  0  0  0  0  0  0
    2.0000    1.3261    0.0000 F   0  0  0  0  0  0  0  0  0  0  0  0
    3.3660    0.9600    0.0000 F   0  0  0  0  0  0  0  0  0  0  0  0
    5.4641    0.3261    0.0000 O   0  0  0  0  0  0  0  0  0  0  0  0
    4.5981    4.8261    0.0000 N   0  0  0  0  0  0  0  0  0  0  0  0
    6.3301    1.8261    0.0000 N   0  0  0  0  0  0  0  0  0  0  0  0
    8.0622   -2.1739    0.0000 N   0  0  0  0  0  0  0  0  0  0  0  0
    4.0981    6.3649    0.0000 N   0  0  0  0  0  0  0  0  0  0  0  0
    7.1962   -3.6739    0.0000 N   0  0  0  0  0  0  0  0  0  0  0  0
    6.3301   -2.1739    0.0000 N   0  0  0  0  0  0  0  0  0  0  0  0
    7.1962   -6.6739    0.0000 N   0  0  0  0  0  0  0  0  0  0  0  0
    4.5981    3.8261    0.0000 C   0  0  0  0  0  0  0  0  0  0  0  0
    5.4641    2.3261    0.0000 C   0  0  0  0  0  0  0  0  0  0  0  0
    3.7320    2.3261    0.0000 C   0  0  0  0  0  0  0  0  0  0  0  0
    5.4641    3.3261    0.0000 C   0  0  0  0  0  0  0  0  0  0  0  0
    3.7320    3.3261    0.0000 C   0  0  0  0  0  0  0  0  0  0  0  0
    4.5981    1.8261    0.0000 C   0  0  0  0  0  0  0  0  0  0  0  0
    7.1962    0.3261    0.0000 C   0  0  0  0  0  0  0  0  0  0  0  0
    8.0622   -1.1739    0.0000 C   0  0  0  0  0  0  0  0  0  0  0  0
    8.9282   -0.6739    0.0000 C   0  0  0  0  0  0  0  0  0  0  0  0
    7.1962   -0.6739    0.0000 C   0  0  0  0  0  0  0  0  0  0  0  0
    6.3301    0.8261    0.0000 C   0  0  0  0  0  0  0  0  0  0  0  0
    5.4071    5.4139    0.0000 C   0  0  0  0  0  0  0  0  0  0  0  0
    8.0622    0.8261    0.0000 C   0  0  0  0  0  0  0  0  0  0  0  0
    8.9282    0.3261    0.0000 C   0  0  0  0  0  0  0  0  0  0  0  0
    2.8660    1.8261    0.0000 C   0  0  0  0  0  0  0  0  0  0  0  0
    3.7891    5.4139    0.0000 C   0  0  0  0  0  0  0  0  0  0  0  0
    5.0981    6.3649    0.0000 C   0  0  0  0  0  0  0  0  0  0  0  0
    9.7942   -1.1739    0.0000 C   0  0  0  0  0  0  0  0  0  0  0  0
    7.1962   -2.6739    0.0000 C   0  0  0  0  0  0  0  0  0  0  0  0
    5.6859    7.1739    0.0000 C   0  0  0  0  0  0  0  0  0  0  0  0
    6.3301   -4.1739    0.0000 C   0  0  0  0  0  0  0  0  0  0  0  0
    6.3301   -5.1739    0.0000 C   0  0  0  0  0  0  0  0  0  0  0  0
    5.4641   -3.6739    0.0000 C   0  0  0  0  0  0  0  0  0  0  0  0
    5.4641   -2.6739    0.0000 C   0  0  0  0  0  0  0  0  0  0  0  0
    5.4641   -5.6739    0.0000 C   0  0  0  0  0  0  0  0  0  0  0  0
    7.1962   -5.6739    0.0000 C   0  0  0  0  0  0  0  0  0  0  0  0
    5.4641   -6.6739    0.0000 C   0  0  0  0  0  0  0  0  0  0  0  0
    6.3301   -7.1739    0.0000 C   0  0  0  0  0  0  0  0  0  0  0  0
    6.0010    3.6361    0.0000 H   0  0  0  0  0  0  0  0  0  0  0  0
    3.1951    3.6361    0.0000 H   0  0  0  0  0  0  0  0  0  0  0  0
    4.5981    1.2061    0.0000 H   0  0  0  0  0  0  0  0  0  0  0  0
    6.8671    2.1361    0.0000 H   0  0  0  0  0  0  0  0  0  0  0  0
    6.6592   -0.9839    0.0000 H   0  0  0  0  0  0  0  0  0  0  0  0
    5.9967    5.2223    0.0000 H   0  0  0  0  0  0  0  0  0  0  0  0
    8.0622    1.4461    0.0000 H   0  0  0  0  0  0  0  0  0  0  0  0
    9.4651    0.6361    0.0000 H   0  0  0  0  0  0  0  0  0  0  0  0
    3.1994    5.2223    0.0000 H   0  0  0  0  0  0  0  0  0  0  0  0
    8.5991   -2.4839    0.0000 H   0  0  0  0  0  0  0  0  0  0  0  0
    9.4842   -1.7109    0.0000 H   0  0  0  0  0  0  0  0  0  0  0  0
   10.3312   -1.4839    0.0000 H   0  0  0  0  0  0  0  0  0  0  0  0
   10.1042   -0.6370    0.0000 H   0  0  0  0  0  0  0  0  0  0  0  0
    6.1874    6.8095    0.0000 H   0  0  0  0  0  0  0  0  0  0  0  0
    6.0503    7.6755    0.0000 H   0  0  0  0  0  0  0  0  0  0  0  0
    5.1843    7.5384    0.0000 H   0  0  0  0  0  0  0  0  0  0  0  0
    4.9272   -3.9839    0.0000 H   0  0  0  0  0  0  0  0  0  0  0  0
    4.9272   -2.3639    0.0000 H   0  0  0  0  0  0  0  0  0  0  0  0
    4.9272   -5.3639    0.0000 H   0  0  0  0  0  0  0  0  0  0  0  0
    7.7331   -5.3639    0.0000 H   0  0  0  0  0  0  0  0  0  0  0  0
    4.9272   -6.9839    0.0000 H   0  0  0  0  0  0  0  0  0  0  0  0
    6.3301   -7.7939    0.0000 H   0  0  0  0  0  0  0  0  0  0  0  0
  1 26  1  0  0  0  0
  2 26  1  0  0  0  0
  3 26  1  0  0  0  0
  4 22  2  0  0  0  0
  5 12  1  0  0  0  0
  5 23  1  0  0  0  0
  5 27  1  0  0  0  0
  6 13  1  0  0  0  0
  6 22  1  0  0  0  0
  6 43  1  0  0  0  0
  7 19  1  0  0  0  0
  7 30  1  0  0  0  0
  7 49  1  0  0  0  0
  8 27  2  0  0  0  0
  8 28  1  0  0  0  0
  9 30  1  0  0  0  0
  9 32  2  0  0  0  0
 10 30  2  0  0  0  0
 10 35  1  0  0  0  0
 11 37  1  0  0  0  0
 11 39  2  0  0  0  0
 12 15  1  0  0  0  0
 12 16  2  0  0  0  0
 13 15  2  0  0  0  0
 13 17  1  0  0  0  0
 14 16  1  0  0  0  0
 14 17  2  0  0  0  0
 14 26  1  0  0  0  0
 15 40  1  0  0  0  0
 16 41  1  0  0  0  0
 17 42  1  0  0  0  0
 18 21  2  0  0  0  0
 18 22  1  0  0  0  0
 18 24  1  0  0  0  0
 19 20  2  0  0  0  0
 19 21  1  0  0  0  0
 20 25  1  0  0  0  0
 20 29  1  0  0  0  0
 21 44  1  0  0  0  0
 23 28  2  0  0  0  0
 23 45  1  0  0  0  0
 24 25  2  0  0  0  0
 24 46  1  0  0  0  0
 25 47  1  0  0  0  0
 27 48  1  0  0  0  0
 28 31  1  0  0  0  0
 29 50  1  0  0  0  0
 29 51  1  0  0  0  0
 29 52  1  0  0  0  0
 31 53  1  0  0  0  0
 31 54  1  0  0  0  0
 31 55  1  0  0  0  0
 32 33  1  0  0  0  0
 32 34  1  0  0  0  0
 33 36  1  0  0  0  0
 33 37  2  0  0  0  0
 34 35  2  0  0  0  0
 34 56  1  0  0  0  0
 35 57  1  0  0  0  0
 36 38  2  0  0  0  0
 36 58  1  0  0  0  0
 37 59  1  0  0  0  0
 38 39  1  0  0  0  0
 38 60  1  0  0  0  0
 39 61  1  0  0  0  0
M  END
> <PUBCHEM_COMPOUND_CID>
644241

> <PUBCHEM_COMPOUND_CANONICALIZED>
1

> <PUBCHEM_CACTVS_COMPLEXITY>
817

> <PUBCHEM_CACTVS_HBOND_ACCEPTOR>
9

> <PUBCHEM_CACTVS_HBOND_DONOR>
2

> <PUBCHEM_CACTVS_ROTATABLE_BOND>
6

> <PUBCHEM_CACTVS_SUBSKEYS>
AAADceB7oYAAAAAAAAAAAAAAAAAAAWAAAAA8eIEAAAAAAAAB/AAAHwAQAAAADAjBnhQ/0JfMEACoAzV3dACCgC01EqAJ2CE4dNiIaPLA3dGUJQholALIyacciACOQAAAQAQCAACAAACACAQAAAAAAAAAAA==

> <PUBCHEM_IUPAC_OPENEYE_NAME>
4-methyl-N-[3-(4-methylimidazol-1-yl)-5-(trifluoromethyl)phenyl]-3-[[4-(3-pyridyl)pyrimidin-2-yl]amino]benzamide

> <PUBCHEM_IUPAC_CAS_NAME>
4-methyl-N-[3-(4-methyl-1-imidazolyl)-5-(trifluoromethyl)phenyl]-3-[[4-(3-pyridinyl)-2-pyrimidinyl]amino]benzamide

> <PUBCHEM_IUPAC_NAME_MARKUP>
4-methyl-<I>N</I>-[3-(4-methylimidazol-1-yl)-5-(trifluoromethyl)phenyl]-3-[(4-pyridin-3-ylpyrimidin-2-yl)amino]benzamide

> <PUBCHEM_IUPAC_NAME>
4-methyl-N-[3-(4-methylimidazol-1-yl)-5-(trifluoromethyl)phenyl]-3-[(4-pyridin-3-ylpyrimidin-2-yl)amino]benzamide

> <PUBCHEM_IUPAC_SYSTEMATIC_NAME>
4-methyl-N-[3-(4-methylimidazol-1-yl)-5-(trifluoromethyl)phenyl]-3-[(4-pyridin-3-ylpyrimidin-2-yl)amino]benzamide

> <PUBCHEM_IUPAC_TRADITIONAL_NAME>
4-methyl-N-[3-(4-methylimidazol-1-yl)-5-(trifluoromethyl)phenyl]-3-[[4-(3-pyridyl)pyrimidin-2-yl]amino]benzamide

> <PUBCHEM_IUPAC_INCHI>
InChI=1S/C28H22F3N7O/c1-17-5-6-19(10-25(17)37-27-33-9-7-24(36-27)20-4-3-8-32-14-20)26(39)35-22-11-21(28(29,30)31)12-23(13-22)38-15-18(2)34-16-38/h3-16H,1-2H3,(H,35,39)(H,33,36,37)

> <PUBCHEM_IUPAC_INCHIKEY>
HHZIURLSWUIHRB-UHFFFAOYSA-N

> <PUBCHEM_XLOGP3_AA>
4.9

> <PUBCHEM_EXACT_MASS>
529.18379284

> <PUBCHEM_MOLECULAR_FORMULA>
C28H22F3N7O

> <PUBCHEM_MOLECULAR_WEIGHT>
529.5

> <PUBCHEM_OPENEYE_CAN_SMILES>
CC1=C(C=C(C=C1)C(=O)NC2=CC(=CC(=C2)C(F)(F)F)N3C=C(N=C3)C)NC4=NC=CC(=N4)C5=CN=CC=C5

> <PUBCHEM_OPENEYE_ISO_SMILES>
CC1=C(C=C(C=C1)C(=O)NC2=CC(=CC(=C2)C(F)(F)F)N3C=C(N=C3)C)NC4=NC=CC(=N4)C5=CN=CC=C5

> <PUBCHEM_CACTVS_TPSA>
97.6

> <PUBCHEM_MONOISOTOPIC_WEIGHT>
529.18379284

> <PUBCHEM_TOTAL_CHARGE>
0

> <PUBCHEM_HEAVY_ATOM_COUNT>
39

> <PUBCHEM_ATOM_DEF_STEREO_COUNT>
0

> <PUBCHEM_ATOM_UDEF_STEREO_COUNT>
0

> <PUBCHEM_BOND_DEF_STEREO_COUNT>
0

> <PUBCHEM_BOND_UDEF_STEREO_COUNT>
0

> <PUBCHEM_ISOTOPIC_ATOM_COUNT>
0

> <PUBCHEM_COMPONENT_COUNT>
1

> <PUBCHEM_CACTVS_TAUTO_COUNT>
-1

> <PUBCHEM_COORDINATE_TYPE>
1
5
255

> <PUBCHEM_BONDANNOTATIONS>
10  30  8
10  35  8
11  37  8
11  39  8
12  15  8
12  16  8
13  15  8
13  17  8
14  16  8
14  17  8
18  21  8
18  24  8
19  20  8
19  21  8
20  25  8
23  28  8
24  25  8
32  34  8
33  36  8
33  37  8
34  35  8
36  38  8
38  39  8
5  23  8
5  27  8
8  27  8
8  28  8
9  30  8
9  32  8

$$$$
9933475
  -OEChem-11282412102D

 60 64  0     0  0  0  0  0  0999 V2000
    8.7720   -3.6282    0.0000 F   0  0  0  0  0  0  0  0  0  0  0  0
    5.3147    1.4062    0.0000 O   0  0  0  0  0  0  0  0  0  0  0  0
    8.7952   -1.6284    0.0000 O   0  0  0  0  0  0  0  0  0  0  0  0
    5.3147   -0.5938    0.0000 O   0  0  0  0  0  0  0  0  0  0  0  0
    3.5827    4.4062    0.0000 N   0  0  0  0  0  0  0  0  0  0  0  0
   12.1050   -3.8339    0.0000 N   0  0  0  0  0  0  0  0  0  0  0  0
    8.8067    1.4409    0.0000 N   0  0  0  0  0  0  0  0  0  0  0  0
    9.7128   -0.1146    0.0000 N   0  0  0  0  0  0  0  0  0  0  0  0
    3.4782    5.4008    0.0000 C   0  0  0  0  0  0  0  0  0  0  0  0
    2.6691    3.9995    0.0000 C   0  0  0  0  0  0  0  0  0  0  0  0
    2.5000    5.6087    0.0000 C   0  0  0  0  0  0  0  0  0  0  0  0
    2.0000    4.7426    0.0000 C   0  0  0  0  0  0  0  0  0  0  0  0
    4.4487    3.9062    0.0000 C   0  0  0  0  0  0  0  0  0  0  0  0
    4.4487    2.9062    0.0000 C   0  0  0  0  0  0  0  0  0  0  0  0
    5.3147    2.4062    0.0000 C   0  0  0  0  0  0  0  0  0  0  0  0
    6.1808    0.9062    0.0000 C   0  0  0  0  0  0  0  0  0  0  0  0
    6.1808   -0.0938    0.0000 C   0  0  0  0  0  0  0  0  0  0  0  0
    7.0468    1.4062    0.0000 C   0  0  0  0  0  0  0  0  0  0  0  0
    7.9128   -0.0938    0.0000 C   0  0  0  0  0  0  0  0  0  0  0  0
    7.9128    0.9062    0.0000 C   0  0  0  0  0  0  0  0  0  0  0  0
   10.5040   -3.6483    0.0000 C   0  0  0  0  0  0  0  0  0  0  0  0
   11.3757   -3.1583    0.0000 C   0  0  0  0  0  0  0  0  0  0  0  0
    7.0468   -0.5938    0.0000 C   0  0  0  0  0  0  0  0  0  0  0  0
   11.6894   -4.7369    0.0000 C   0  0  0  0  0  0  0  0  0  0  0  0
   10.7019   -4.6224    0.0000 C   0  0  0  0  0  0  0  0  0  0  0  0
    8.8067   -0.6284    0.0000 C   0  0  0  0  0  0  0  0  0  0  0  0
    9.6438   -3.1383    0.0000 C   0  0  0  0  0  0  0  0  0  0  0  0
    9.6554   -2.1384    0.0000 C   0  0  0  0  0  0  0  0  0  0  0  0
   11.3873   -2.1584    0.0000 C   0  0  0  0  0  0  0  0  0  0  0  0
   10.5271   -1.6484    0.0000 C   0  0  0  0  0  0  0  0  0  0  0  0
   12.1794   -5.6087    0.0000 C   0  0  0  0  0  0  0  0  0  0  0  0
    9.7128    0.9270    0.0000 C   0  0  0  0  0  0  0  0  0  0  0  0
    5.3147   -1.5938    0.0000 C   0  0  0  0  0  0  0  0  0  0  0  0
    4.0982    5.4008    0.0000 H   0  0  0  0  0  0  0  0  0  0  0  0
    3.5430    6.0174    0.0000 H   0  0  0  0  0  0  0  0  0  0  0  0
    2.1675    3.6351    0.0000 H   0  0  0  0  0  0  0  0  0  0  0  0
    2.9791    3.4626    0.0000 H   0  0  0  0  0  0  0  0  0  0  0  0
    2.6916    6.1983    0.0000 H   0  0  0  0  0  0  0  0  0  0  0  0
    1.9336    5.8608    0.0000 H   0  0  0  0  0  0  0  0  0  0  0  0
    1.4984    5.1071    0.0000 H   0  0  0  0  0  0  0  0  0  0  0  0
    1.5851    4.2819    0.0000 H   0  0  0  0  0  0  0  0  0  0  0  0
    5.0593    3.7986    0.0000 H   0  0  0  0  0  0  0  0  0  0  0  0
    4.6608    4.4888    0.0000 H   0  0  0  0  0  0  0  0  0  0  0  0
    3.8381    3.0139    0.0000 H   0  0  0  0  0  0  0  0  0  0  0  0
    4.2366    2.3236    0.0000 H   0  0  0  0  0  0  0  0  0  0  0  0
    5.9253    2.2986    0.0000 H   0  0  0  0  0  0  0  0  0  0  0  0
    5.5268    2.9888    0.0000 H   0  0  0  0  0  0  0  0  0  0  0  0
    7.0468    2.0262    0.0000 H   0  0  0  0  0  0  0  0  0  0  0  0
    7.0468   -1.2138    0.0000 H   0  0  0  0  0  0  0  0  0  0  0  0
   10.2826   -5.0791    0.0000 H   0  0  0  0  0  0  0  0  0  0  0  0
   12.7131   -3.7130    0.0000 H   0  0  0  0  0  0  0  0  0  0  0  0
   11.9278   -1.8546    0.0000 H   0  0  0  0  0  0  0  0  0  0  0  0
   10.5343   -1.0284    0.0000 H   0  0  0  0  0  0  0  0  0  0  0  0
   11.6389   -5.9124    0.0000 H   0  0  0  0  0  0  0  0  0  0  0  0
   12.4831   -6.1492    0.0000 H   0  0  0  0  0  0  0  0  0  0  0  0
   12.7198   -5.3049    0.0000 H   0  0  0  0  0  0  0  0  0  0  0  0
   10.2485    1.2391    0.0000 H   0  0  0  0  0  0  0  0  0  0  0  0
    4.6947   -1.5938    0.0000 H   0  0  0  0  0  0  0  0  0  0  0  0
    5.3147   -2.2138    0.0000 H   0  0  0  0  0  0  0  0  0  0  0  0
    5.9347   -1.5938    0.0000 H   0  0  0  0  0  0  0  0  0  0  0  0
  1 27  1  0  0  0  0
  2 15  1  0  0  0  0
  2 16  1  0  0  0  0
  3 26  1  0  0  0  0
  3 28  1  0  0  0  0
  4 17  1  0  0  0  0
  4 33  1  0  0  0  0
  5  9  1  0  0  0  0
  5 10  1  0  0  0  0
  5 13  1  0  0  0  0
  6 22  1  0  0  0  0
  6 24  1  0  0  0  0
  6 51  1  0  0  0  0
  7 20  1  0  0  0  0
  7 32  2  0  0  0  0
  8 26  2  0  0  0  0
  8 32  1  0  0  0  0
  9 11  1  0  0  0  0
  9 34  1  0  0  0  0
  9 35  1  0  0  0  0
 10 12  1  0  0  0  0
 10 36  1  0  0  0  0
 10 37  1  0  0  0  0
 11 12  1  0  0  0  0
 11 38  1  0  0  0  0
 11 39  1  0  0  0  0
 12 40  1  0  0  0  0
 12 41  1  0  0  0  0
 13 14  1  0  0  0  0
 13 42  1  0  0  0  0
 13 43  1  0  0  0  0
 14 15  1  0  0  0  0
 14 44  1  0  0  0  0
 14 45  1  0  0  0  0
 15 46  1  0  0  0  0
 15 47  1  0  0  0  0
 16 17  2  0  0  0  0
 16 18  1  0  0  0  0
 17 23  1  0  0  0  0
 18 20  2  0  0  0  0
 18 48  1  0  0  0  0
 19 20  1  0  0  0  0
 19 23  2  0  0  0  0
 19 26  1  0  0  0  0
 21 22  2  0  0  0  0
 21 25  1  0  0  0  0
 21 27  1  0  0  0  0
 22 29  1  0  0  0  0
 23 49  1  0  0  0  0
 24 25  2  0  0  0  0
 24 31  1  0  0  0  0
 25 50  1  0  0  0  0
 27 28  2  0  0  0  0
 28 30  1  0  0  0  0
 29 30  2  0  0  0  0
 29 52  1  0  0  0  0
 30 53  1  0  0  0  0
 31 54  1  0  0  0  0
 31 55  1  0  0  0  0
 31 56  1  0  0  0  0
 32 57  1  0  0  0  0
 33 58  1  0  0  0  0
 33 59  1  0  0  0  0
 33 60  1  0  0  0  0
M  END
> <PUBCHEM_COMPOUND_CID>
9933475

> <PUBCHEM_COMPOUND_CANONICALIZED>
1

> <PUBCHEM_CACTVS_COMPLEXITY>
625

> <PUBCHEM_CACTVS_HBOND_ACCEPTOR>
7

> <PUBCHEM_CACTVS_HBOND_DONOR>
1

> <PUBCHEM_CACTVS_ROTATABLE_BOND>
8

> <PUBCHEM_CACTVS_SUBSKEYS>
AAADceB7sQAAAAAAAAAAAAAAAAAAAWLAAAA8YIAAAAAAAFix/gAAHwAQAAAADAzhng431vfJlACgAyRjZACCiCkxIqAJ2SA+7JiNLuLE+duOPCru0BvK6Cfw8L8OIEABAgACQABAgAIEAASAAAAAAAAAAA==

> <PUBCHEM_IUPAC_OPENEYE_NAME>
4-[(4-fluoro-2-methyl-1H-indol-5-yl)oxy]-6-methoxy-7-(3-pyrrolidin-1-ylpropoxy)quinazoline

> <PUBCHEM_IUPAC_CAS_NAME>
4-[(4-fluoro-2-methyl-1H-indol-5-yl)oxy]-6-methoxy-7-[3-(1-pyrrolidinyl)propoxy]quinazoline

> <PUBCHEM_IUPAC_NAME_MARKUP>
4-[(4-fluoro-2-methyl-1<I>H</I>-indol-5-yl)oxy]-6-methoxy-7-(3-pyrrolidin-1-ylpropoxy)quinazoline

> <PUBCHEM_IUPAC_NAME>
4-[(4-fluoro-2-methyl-1H-indol-5-yl)oxy]-6-methoxy-7-(3-pyrrolidin-1-ylpropoxy)quinazoline

> <PUBCHEM_IUPAC_SYSTEMATIC_NAME>
4-[(4-fluoranyl-2-methyl-1H-indol-5-yl)oxy]-6-methoxy-7-(3-pyrrolidin-1-ylpropoxy)quinazoline

> <PUBCHEM_IUPAC_TRADITIONAL_NAME>
4-[(4-fluoro-2-methyl-1H-indol-5-yl)oxy]-6-methoxy-7-(3-pyrrolidinopropoxy)quinazoline

> <PUBCHEM_IUPAC_INCHI>
InChI=1S/C25H27FN4O3/c1-16-12-17-19(29-16)6-7-21(24(17)26)33-25-18-13-22(31-2)23(14-20(18)27-15-28-25)32-11-5-10-30-8-3-4-9-30/h6-7,12-15,29H,3-5,8-11H2,1-2H3

> <PUBCHEM_IUPAC_INCHIKEY>
XXJWYDDUDKYVKI-UHFFFAOYSA-N

> <PUBCHEM_XLOGP3_AA>
4.9

> <PUBCHEM_EXACT_MASS>
450.20671890

> <PUBCHEM_MOLECULAR_FORMULA>
C25H27FN4O3

> <PUBCHEM_MOLECULAR_WEIGHT>
450.5

> <PUBCHEM_OPENEYE_CAN_SMILES>
CC1=CC2=C(N1)C=CC(=C2F)OC3=NC=NC4=CC(=C(C=C43)OC)OCCCN5CCCC5

> <PUBCHEM_OPENEYE_ISO_SMILES>
CC1=CC2=C(N1)C=CC(=C2F)OC3=NC=NC4=CC(=C(C=C43)OC)OCCCN5CCCC5

> <PUBCHEM_CACTVS_TPSA>
72.5

> <PUBCHEM_MONOISOTOPIC_WEIGHT>
450.20671890

> <PUBCHEM_TOTAL_CHARGE>
0

> <PUBCHEM_HEAVY_ATOM_COUNT>
33

> <PUBCHEM_ATOM_DEF_STEREO_COUNT>
0

> <PUBCHEM_ATOM_UDEF_STEREO_COUNT>
0

> <PUBCHEM_BOND_DEF_STEREO_COUNT>
0

> <PUBCHEM_BOND_UDEF_STEREO_COUNT>
0

> <PUBCHEM_ISOTOPIC_ATOM_COUNT>
0

> <PUBCHEM_COMPONENT_COUNT>
1

> <PUBCHEM_CACTVS_TAUTO_COUNT>
-1

> <PUBCHEM_COORDINATE_TYPE>
1
5
255

> <PUBCHEM_BONDANNOTATIONS>
16  17  8
16  18  8
17  23  8
18  20  8
19  20  8
19  23  8
19  26  8
21  22  8
21  25  8
21  27  8
22  29  8
24  25  8
27  28  8
28  30  8
29  30  8
6  22  8
6  24  8
7  20  8
7  32  8
8  26  8
8  32  8

$$$$
22024915
  -OEChem-11282412102D

 50 53  0     0  0  0  0  0  0999 V2000
    5.2320   -2.3510    0.0000 O   0  0  0  0  0  0  0  0  0  0  0  0
    3.5000   -1.3510    0.0000 O   0  0  0  0  0  0  0  0  0  0  0  0
    3.5000   -4.8151    0.0000 O   0  0  0  0  0  0  0  0  0  0  0  0
    2.5000   -3.0830    0.0000 O   0  0  0  0  0  0  0  0  0  0  0  0
    7.9582    0.2154    0.0000 N   0  0  0  0  0  0  0  0  0  0  0  0
    5.2313    1.8031    0.0000 N   0  0  0  0  0  0  0  0  0  0  0  0
    7.1063    1.8104    0.0000 N   0  0  0  0  0  0  0  0  0  0  0  0
    6.1501    0.1975    0.0000 C   0  0  0  0  0  0  0  0  0  0  0  0
    5.2320   -1.3510    0.0000 C   0  0  0  0  0  0  0  0  0  0  0  0
    4.3660   -0.8510    0.0000 C   0  0  0  0  0  0  0  0  0  0  0  0
    5.2480    0.7183    0.0000 C   0  0  0  0  0  0  0  0  0  0  0  0
    6.1420   -0.8441    0.0000 C   0  0  0  0  0  0  0  0  0  0  0  0
    4.3500    0.1905    0.0000 C   0  0  0  0  0  0  0  0  0  0  0  0
    7.0980    0.7254    0.0000 C   0  0  0  0  0  0  0  0  0  0  0  0
    4.8660   -3.4491    0.0000 C   0  0  0  0  0  0  0  0  0  0  0  0
    2.5000   -1.3510    0.0000 C   0  0  0  0  0  0  0  0  0  0  0  0
    4.0000   -3.9491    0.0000 C   0  0  0  0  0  0  0  0  0  0  0  0
    2.0000   -2.2170    0.0000 C   0  0  0  0  0  0  0  0  0  0  0  0
    2.5000   -4.8151    0.0000 C   0  0  0  0  0  0  0  0  0  0  0  0
    2.0000   -3.9491    0.0000 C   0  0  0  0  0  0  0  0  0  0  0  0
    8.8299    0.7054    0.0000 C   0  0  0  0  0  0  0  0  0  0  0  0
    6.1667    2.3529    0.0000 C   0  0  0  0  0  0  0  0  0  0  0  0
    8.8415    1.7053    0.0000 C   0  0  0  0  0  0  0  0  0  0  0  0
    9.6901    0.1954    0.0000 C   0  0  0  0  0  0  0  0  0  0  0  0
    9.7132    2.1953    0.0000 C   0  0  0  0  0  0  0  0  0  0  0  0
   10.5618    0.6853    0.0000 C   0  0  0  0  0  0  0  0  0  0  0  0
   10.5734    1.6853    0.0000 C   0  0  0  0  0  0  0  0  0  0  0  0
    9.7248    3.1952    0.0000 C   0  0  0  0  0  0  0  0  0  0  0  0
    9.7363    4.1951    0.0000 C   0  0  0  0  0  0  0  0  0  0  0  0
    6.6754   -1.1603    0.0000 H   0  0  0  0  0  0  0  0  0  0  0  0
    3.8095    0.4943    0.0000 H   0  0  0  0  0  0  0  0  0  0  0  0
    5.0145   -4.0510    0.0000 H   0  0  0  0  0  0  0  0  0  0  0  0
    5.4855   -3.4738    0.0000 H   0  0  0  0  0  0  0  0  0  0  0  0
    2.6077   -0.7404    0.0000 H   0  0  0  0  0  0  0  0  0  0  0  0
    1.9174   -1.1389    0.0000 H   0  0  0  0  0  0  0  0  0  0  0  0
    3.8923   -3.3385    0.0000 H   0  0  0  0  0  0  0  0  0  0  0  0
    4.4384   -4.3875    0.0000 H   0  0  0  0  0  0  0  0  0  0  0  0
    1.5250   -1.8185    0.0000 H   0  0  0  0  0  0  0  0  0  0  0  0
    1.5250   -2.6155    0.0000 H   0  0  0  0  0  0  0  0  0  0  0  0
    1.9174   -5.0271    0.0000 H   0  0  0  0  0  0  0  0  0  0  0  0
    2.6077   -5.4257    0.0000 H   0  0  0  0  0  0  0  0  0  0  0  0
    1.5250   -3.5505    0.0000 H   0  0  0  0  0  0  0  0  0  0  0  0
    1.5250   -4.3476    0.0000 H   0  0  0  0  0  0  0  0  0  0  0  0
    7.9510   -0.4045    0.0000 H   0  0  0  0  0  0  0  0  0  0  0  0
    6.1643    2.9729    0.0000 H   0  0  0  0  0  0  0  0  0  0  0  0
    8.3082    2.0215    0.0000 H   0  0  0  0  0  0  0  0  0  0  0  0
    9.6829   -0.4246    0.0000 H   0  0  0  0  0  0  0  0  0  0  0  0
   11.0952    0.3692    0.0000 H   0  0  0  0  0  0  0  0  0  0  0  0
   11.1139    1.9890    0.0000 H   0  0  0  0  0  0  0  0  0  0  0  0
    9.7435    4.8151    0.0000 H   0  0  0  0  0  0  0  0  0  0  0  0
  1  9  1  0  0  0  0
  1 15  1  0  0  0  0
  2 10  1  0  0  0  0
  2 16  1  0  0  0  0
  3 17  1  0  0  0  0
  3 19  1  0  0  0  0
  4 18  1  0  0  0  0
  4 20  1  0  0  0  0
  5 14  1  0  0  0  0
  5 21  1  0  0  0  0
  5 44  1  0  0  0  0
  6 11  1  0  0  0  0
  6 22  2  0  0  0  0
  7 14  2  0  0  0  0
  7 22  1  0  0  0  0
  8 11  1  0  0  0  0
  8 12  2  0  0  0  0
  8 14  1  0  0  0  0
  9 10  2  0  0  0  0
  9 12  1  0  0  0  0
 10 13  1  0  0  0  0
 11 13  2  0  0  0  0
 12 30  1  0  0  0  0
 13 31  1  0  0  0  0
 15 17  1  0  0  0  0
 15 32  1  0  0  0  0
 15 33  1  0  0  0  0
 16 18  1  0  0  0  0
 16 34  1  0  0  0  0
 16 35  1  0  0  0  0
 17 36  1  0  0  0  0
 17 37  1  0  0  0  0
 18 38  1  0  0  0  0
 18 39  1  0  0  0  0
 19 20  1  0  0  0  0
 19 40  1  0  0  0  0
 19 41  1  0  0  0  0
 20 42  1  0  0  0  0
 20 43  1  0  0  0  0
 21 23  1  0  0  0  0
 21 24  2  0  0  0  0
 22 45  1  0  0  0  0
 23 25  2  0  0  0  0
 23 46  1  0  0  0  0
 24 26  1  0  0  0  0
 24 47  1  0  0  0  0
 25 27  1  0  0  0  0
 25 28  1  0  0  0  0
 26 27  2  0  0  0  0
 26 48  1  0  0  0  0
 27 49  1  0  0  0  0
 28 29  3  0  0  0  0
 29 50  1  0  0  0  0
M  END
> <PUBCHEM_COMPOUND_CID>
22024915

> <PUBCHEM_COMPOUND_CANONICALIZED>
1

> <PUBCHEM_CACTVS_COMPLEXITY>
553

> <PUBCHEM_CACTVS_HBOND_ACCEPTOR>
7

> <PUBCHEM_CACTVS_HBOND_DONOR>
1

> <PUBCHEM_CACTVS_ROTATABLE_BOND>
3

> <PUBCHEM_CACTVS_SUBSKEYS>
AAADceB7OAAAAAAAAAAAAAAAAAAAAAAAAAA8YIAAAAAAAACx9AAAHgAQAAAADAyhngY19vbIFADgGyZjZAiCiCkxIqAJ2CA+7JiNLuLE+duGPCru0BvK6Cew0BMOIEABQgACQABAgAKEAASAAAAAAAAAAA==

> <PUBCHEM_IUPAC_OPENEYE_NAME>
N-(3-ethynylphenyl)-2,5,8,11-tetraoxa-15,17-diazatricyclo[10.8.0.014,19]icosa-1(12),13,15,17,19-pentaen-18-amine

> <PUBCHEM_IUPAC_CAS_NAME>
N-(3-ethynylphenyl)-2,5,8,11-tetraoxa-15,17-diazatricyclo[10.8.0.014,19]eicosa-1(12),13,15,17,19-pentaen-18-amine

> <PUBCHEM_IUPAC_NAME_MARKUP>
<I>N</I>-(3-ethynylphenyl)-2,5,8,11-tetraoxa-15,17-diazatricyclo[10.8.0.0<SUP>14,19</SUP>]icosa-1(12),13,15,17,19-pentaen-18-amine

> <PUBCHEM_IUPAC_NAME>
N-(3-ethynylphenyl)-2,5,8,11-tetraoxa-15,17-diazatricyclo[10.8.0.014,19]icosa-1(12),13,15,17,19-pentaen-18-amine

> <PUBCHEM_IUPAC_SYSTEMATIC_NAME>
N-(3-ethynylphenyl)-2,5,8,11-tetraoxa-15,17-diazatricyclo[10.8.0.014,19]icosa-1(12),13,15,17,19-pentaen-18-amine

> <PUBCHEM_IUPAC_TRADITIONAL_NAME>
(3-ethynylphenyl)-(2,5,8,11-tetraoxa-15,17-diazatricyclo[10.8.0.014,19]eicosa-1(12),13,15,17,19-pentaen-18-yl)amine

> <PUBCHEM_IUPAC_INCHI>
InChI=1S/C22H21N3O4/c1-2-16-4-3-5-17(12-16)25-22-18-13-20-21(14-19(18)23-15-24-22)29-11-9-27-7-6-26-8-10-28-20/h1,3-5,12-15H,6-11H2,(H,23,24,25)

> <PUBCHEM_IUPAC_INCHIKEY>
QQLKULDARVNMAL-UHFFFAOYSA-N

> <PUBCHEM_XLOGP3_AA>
3.1

> <PUBCHEM_EXACT_MASS>
391.15320616

> <PUBCHEM_MOLECULAR_FORMULA>
C22H21N3O4

> <PUBCHEM_MOLECULAR_WEIGHT>
391.4

> <PUBCHEM_OPENEYE_CAN_SMILES>
C#CC1=CC(=CC=C1)NC2=NC=NC3=CC4=C(C=C32)OCCOCCOCCO4

> <PUBCHEM_OPENEYE_ISO_SMILES>
C#CC1=CC(=CC=C1)NC2=NC=NC3=CC4=C(C=C32)OCCOCCOCCO4

> <PUBCHEM_CACTVS_TPSA>
74.7

> <PUBCHEM_MONOISOTOPIC_WEIGHT>
391.15320616

> <PUBCHEM_TOTAL_CHARGE>
0

> <PUBCHEM_HEAVY_ATOM_COUNT>
29

> <PUBCHEM_ATOM_DEF_STEREO_COUNT>
0

> <PUBCHEM_ATOM_UDEF_STEREO_COUNT>
0

> <PUBCHEM_BOND_DEF_STEREO_COUNT>
0

> <PUBCHEM_BOND_UDEF_STEREO_COUNT>
0

> <PUBCHEM_ISOTOPIC_ATOM_COUNT>
0

> <PUBCHEM_COMPONENT_COUNT>
1

> <PUBCHEM_CACTVS_TAUTO_COUNT>
-1

> <PUBCHEM_COORDINATE_TYPE>
1
5
255

> <PUBCHEM_BONDANNOTATIONS>
10  13  8
11  13  8
21  23  8
21  24  8
23  25  8
24  26  8
25  27  8
26  27  8
6  11  8
6  22  8
7  14  8
7  22  8
8  11  8
8  12  8
8  14  8
9  10  8
9  12  8

$$$$
24821094
  -OEChem-11282412102D

 57 61  0     1  0  0  0  0  0999 V2000
    2.9854   -4.0284    0.0000 O   0  0  0  0  0  0  0  0  0  0  0  0
    5.9209    4.5665    0.0000 O   0  0  0  0  0  0  0  0  0  0  0  0
    4.6318   -3.4904    0.0000 N   0  0  0  0  0  0  0  0  0  0  0  0
    4.6783   -0.8450    0.0000 N   0  0  0  0  0  0  0  0  0  0  0  0
    5.2619   -0.0403    0.0000 N   0  0  0  0  0  0  0  0  0  0  0  0
    2.8660   -1.0403    0.0000 N   0  0  0  0  0  0  0  0  0  0  0  0
    2.0000    0.4597    0.0000 N   0  0  0  0  0  0  0  0  0  0  0  0
    2.8660    1.9597    0.0000 N   0  0  0  0  0  0  0  0  0  0  0  0
    4.9889   -1.7955    0.0000 C   0  0  2  0  0  0  0  0  0  0  0  0
    5.9674   -2.0018    0.0000 C   0  0  0  0  0  0  0  0  0  0  0  0
    4.3211   -2.5398    0.0000 C   0  0  0  0  0  0  0  0  0  0  0  0
    6.2781   -2.9523    0.0000 C   0  0  0  0  0  0  0  0  0  0  0  0
    5.6103   -3.6966    0.0000 C   0  0  0  0  0  0  0  0  0  0  0  0
    3.7320   -0.5403    0.0000 C   0  0  0  0  0  0  0  0  0  0  0  0
    3.7320    0.4597    0.0000 C   0  0  0  0  0  0  0  0  0  0  0  0
    3.9639   -4.2347    0.0000 C   0  0  0  0  0  0  0  0  0  0  0  0
    4.6783    0.7644    0.0000 C   0  0  0  0  0  0  0  0  0  0  0  0
    2.8660    0.9597    0.0000 C   0  0  0  0  0  0  0  0  0  0  0  0
    4.9889    1.7150    0.0000 C   0  0  0  0  0  0  0  0  0  0  0  0
    4.2746   -5.1852    0.0000 C   0  0  0  0  0  0  0  0  0  0  0  0
    2.0000   -0.5403    0.0000 C   0  0  0  0  0  0  0  0  0  0  0  0
    5.9674    1.9212    0.0000 C   0  0  0  0  0  0  0  0  0  0  0  0
    4.3211    2.4593    0.0000 C   0  0  0  0  0  0  0  0  0  0  0  0
    3.6067   -5.9295    0.0000 C   0  0  0  0  0  0  0  0  0  0  0  0
    6.2781    2.8717    0.0000 C   0  0  0  0  0  0  0  0  0  0  0  0
    4.6318    3.4098    0.0000 C   0  0  0  0  0  0  0  0  0  0  0  0
    5.6103    3.6160    0.0000 C   0  0  0  0  0  0  0  0  0  0  0  0
    6.8994    4.7728    0.0000 C   0  0  0  0  0  0  0  0  0  0  0  0
    7.2101    5.7233    0.0000 C   0  0  0  0  0  0  0  0  0  0  0  0
    7.5673    4.0284    0.0000 C   0  0  0  0  0  0  0  0  0  0  0  0
    8.1886    5.9295    0.0000 C   0  0  0  0  0  0  0  0  0  0  0  0
    8.5458    4.2347    0.0000 C   0  0  0  0  0  0  0  0  0  0  0  0
    8.8564    5.1852    0.0000 C   0  0  0  0  0  0  0  0  0  0  0  0
    5.4030   -1.3341    0.0000 H   0  0  0  0  0  0  0  0  0  0  0  0
    6.5812   -1.9144    0.0000 H   0  0  0  0  0  0  0  0  0  0  0  0
    5.9880   -1.3821    0.0000 H   0  0  0  0  0  0  0  0  0  0  0  0
    3.9385   -2.0519    0.0000 H   0  0  0  0  0  0  0  0  0  0  0  0
    3.7742   -2.8319    0.0000 H   0  0  0  0  0  0  0  0  0  0  0  0
    6.6607   -3.4402    0.0000 H   0  0  0  0  0  0  0  0  0  0  0  0
    6.8250   -2.6603    0.0000 H   0  0  0  0  0  0  0  0  0  0  0  0
    5.3790   -4.2718    0.0000 H   0  0  0  0  0  0  0  0  0  0  0  0
    6.1366   -4.0242    0.0000 H   0  0  0  0  0  0  0  0  0  0  0  0
    4.8812   -5.3130    0.0000 H   0  0  0  0  0  0  0  0  0  0  0  0
    1.4631   -0.8503    0.0000 H   0  0  0  0  0  0  0  0  0  0  0  0
    6.3815    1.4597    0.0000 H   0  0  0  0  0  0  0  0  0  0  0  0
    3.7144    2.3314    0.0000 H   0  0  0  0  0  0  0  0  0  0  0  0
    2.3291    2.2697    0.0000 H   0  0  0  0  0  0  0  0  0  0  0  0
    3.4030    2.2697    0.0000 H   0  0  0  0  0  0  0  0  0  0  0  0
    3.0000   -5.8016    0.0000 H   0  0  0  0  0  0  0  0  0  0  0  0
    3.7993   -6.5188    0.0000 H   0  0  0  0  0  0  0  0  0  0  0  0
    6.8848    2.9996    0.0000 H   0  0  0  0  0  0  0  0  0  0  0  0
    4.2177    3.8712    0.0000 H   0  0  0  0  0  0  0  0  0  0  0  0
    6.7960    6.1847    0.0000 H   0  0  0  0  0  0  0  0  0  0  0  0
    7.3747    3.4391    0.0000 H   0  0  0  0  0  0  0  0  0  0  0  0
    8.3812    6.5188    0.0000 H   0  0  0  0  0  0  0  0  0  0  0  0
    8.9598    3.7732    0.0000 H   0  0  0  0  0  0  0  0  0  0  0  0
    9.4631    5.3130    0.0000 H   0  0  0  0  0  0  0  0  0  0  0  0
  1 16  2  0  0  0  0
  2 27  1  0  0  0  0
  2 28  1  0  0  0  0
  3 11  1  0  0  0  0
  3 13  1  0  0  0  0
  3 16  1  0  0  0  0
  4  5  1  0  0  0  0
  9  4  1  6  0  0  0
  4 14  1  0  0  0  0
  5 17  2  0  0  0  0
  6 14  2  0  0  0  0
  6 21  1  0  0  0  0
  7 18  1  0  0  0  0
  7 21  2  0  0  0  0
  8 18  1  0  0  0  0
  8 47  1  0  0  0  0
  8 48  1  0  0  0  0
  9 10  1  0  0  0  0
  9 11  1  0  0  0  0
  9 34  1  0  0  0  0
 10 12  1  0  0  0  0
 10 35  1  0  0  0  0
 10 36  1  0  0  0  0
 11 37  1  0  0  0  0
 11 38  1  0  0  0  0
 12 13  1  0  0  0  0
 12 39  1  0  0  0  0
 12 40  1  0  0  0  0
 13 41  1  0  0  0  0
 13 42  1  0  0  0  0
 14 15  1  0  0  0  0
 15 17  1  0  0  0  0
 15 18  2  0  0  0  0
 16 20  1  0  0  0  0
 17 19  1  0  0  0  0
 19 22  2  0  0  0  0
 19 23  1  0  0  0  0
 20 24  2  0  0  0  0
 20 43  1  0  0  0  0
 21 44  1  0  0  0  0
 22 25  1  0  0  0  0
 22 45  1  0  0  0  0
 23 26  2  0  0  0  0
 23 46  1  0  0  0  0
 24 49  1  0  0  0  0
 24 50  1  0  0  0  0
 25 27  2  0  0  0  0
 25 51  1  0  0  0  0
 26 27  1  0  0  0  0
 26 52  1  0  0  0  0
 28 29  2  0  0  0  0
 28 30  1  0  0  0  0
 29 31  1  0  0  0  0
 29 53  1  0  0  0  0
 30 32  2  0  0  0  0
 30 54  1  0  0  0  0
 31 33  2  0  0  0  0
 31 55  1  0  0  0  0
 32 33  1  0  0  0  0
 32 56  1  0  0  0  0
 33 57  1  0  0  0  0
M  END
> <PUBCHEM_COMPOUND_CID>
24821094

> <PUBCHEM_COMPOUND_CANONICALIZED>
1

> <PUBCHEM_CACTVS_COMPLEXITY>
678

> <PUBCHEM_CACTVS_HBOND_ACCEPTOR>
6

> <PUBCHEM_CACTVS_HBOND_DONOR>
1

> <PUBCHEM_CACTVS_ROTATABLE_BOND>
5

> <PUBCHEM_CACTVS_SUBSKEYS>
AAADceB7sAAAAAAAAAAAAAAAAAAAAWAAAAA8eIEAAAAAAFgB/AAAHgAYAAAADCzBnwQ1tt9IFACqAydzdACSjCsxoKAd2CAuTNiMbqLE+duWvCjszhPI6KeQ0OEOIAAAAAAAAABAAAAAAAAAAAAAAAAAAA==

> <PUBCHEM_IUPAC_OPENEYE_NAME>
1-[(3R)-3-[4-amino-3-(4-phenoxyphenyl)pyrazolo[3,4-d]pyrimidin-1-yl]-1-piperidyl]prop-2-en-1-one

> <PUBCHEM_IUPAC_CAS_NAME>
1-[(3R)-3-[4-amino-3-(4-phenoxyphenyl)-1-pyrazolo[3,4-d]pyrimidinyl]-1-piperidinyl]-2-propen-1-one

> <PUBCHEM_IUPAC_NAME_MARKUP>
1-[(3<I>R</I>)-3-[4-amino-3-(4-phenoxyphenyl)pyrazolo[3,4-d]pyrimidin-1-yl]piperidin-1-yl]prop-2-en-1-one

> <PUBCHEM_IUPAC_NAME>
1-[(3R)-3-[4-amino-3-(4-phenoxyphenyl)pyrazolo[3,4-d]pyrimidin-1-yl]piperidin-1-yl]prop-2-en-1-one

> <PUBCHEM_IUPAC_SYSTEMATIC_NAME>
1-[(3R)-3-[4-azanyl-3-(4-phenoxyphenyl)pyrazolo[3,4-d]pyrimidin-1-yl]piperidin-1-yl]prop-2-en-1-one

> <PUBCHEM_IUPAC_TRADITIONAL_NAME>
1-[(3R)-3-[4-amino-3-(4-phenoxyphenyl)pyrazolo[3,4-d]pyrimidin-1-yl]piperidino]prop-2-en-1-one

> <PUBCHEM_IUPAC_INCHI>
InChI=1S/C25H24N6O2/c1-2-21(32)30-14-6-7-18(15-30)31-25-22(24(26)27-16-28-25)23(29-31)17-10-12-20(13-11-17)33-19-8-4-3-5-9-19/h2-5,8-13,16,18H,1,6-7,14-15H2,(H2,26,27,28)/t18-/m1/s1

> <PUBCHEM_IUPAC_INCHIKEY>
XYFPWWZEPKGCCK-GOSISDBHSA-N

> <PUBCHEM_XLOGP3_AA>
3.6

> <PUBCHEM_EXACT_MASS>
440.19607403

> <PUBCHEM_MOLECULAR_FORMULA>
C25H24N6O2

> <PUBCHEM_MOLECULAR_WEIGHT>
440.5

> <PUBCHEM_OPENEYE_CAN_SMILES>
C=CC(=O)N1CCCC(C1)N2C3=NC=NC(=C3C(=N2)C4=CC=C(C=C4)OC5=CC=CC=C5)N

> <PUBCHEM_OPENEYE_ISO_SMILES>
C=CC(=O)N1CCC[C@H](C1)N2C3=NC=NC(=C3C(=N2)C4=CC=C(C=C4)OC5=CC=CC=C5)N

> <PUBCHEM_CACTVS_TPSA>
99.2

> <PUBCHEM_MONOISOTOPIC_WEIGHT>
440.19607403

> <PUBCHEM_TOTAL_CHARGE>
0

> <PUBCHEM_HEAVY_ATOM_COUNT>
33

> <PUBCHEM_ATOM_DEF_STEREO_COUNT>
1

> <PUBCHEM_ATOM_UDEF_STEREO_COUNT>
0

> <PUBCHEM_BOND_DEF_STEREO_COUNT>
0

> <PUBCHEM_BOND_UDEF_STEREO_COUNT>
0

> <PUBCHEM_ISOTOPIC_ATOM_COUNT>
0

> <PUBCHEM_COMPONENT_COUNT>
1

> <PUBCHEM_CACTVS_TAUTO_COUNT>
5

> <PUBCHEM_COORDINATE_TYPE>
1
5
255

> <PUBCHEM_BONDANNOTATIONS>
14  15  8
15  17  8
15  18  8
19  22  8
19  23  8
22  25  8
23  26  8
25  27  8
26  27  8
28  29  8
28  30  8
29  31  8
30  32  8
31  33  8
32  33  8
4  14  8
4  5  8
9  4  6
5  17  8
6  14  8
6  21  8
7  18  8
7  21  8

$$$$
5328940
  -OEChem-11282412102D

 65 68  0     0  0  0  0  0  0999 V2000
    9.8429    4.7704    0.0000 Cl  0  0  0  0  0  0  0  0  0  0  0  0
   13.3070    4.7704    0.0000 Cl  0  0  0  0  0  0  0  0  0  0  0  0
    6.3128   -0.2537    0.0000 O   0  0  0  0  0  0  0  0  0  0  0  0
    6.3128    1.7946    0.0000 O   0  0  0  0  0  0  0  0  0  0  0  0
   13.3070    2.7704    0.0000 O   0  0  0  0  0  0  0  0  0  0  0  0
    4.5923   -3.2604    0.0000 N   0  0  0  0  0  0  0  0  0  0  0  0
    2.8641   -4.2671    0.0000 N   0  0  0  0  0  0  0  0  0  0  0  0
    9.8429    2.7704    0.0000 N   0  0  0  0  0  0  0  0  0  0  0  0
    9.8429   -0.2296    0.0000 N   0  0  0  0  0  0  0  0  0  0  0  0
   12.4410    2.2704    0.0000 N   0  0  0  0  0  0  0  0  0  0  0  0
    3.7243   -2.7637    0.0000 C   0  0  0  0  0  0  0  0  0  0  0  0
    4.5961   -4.2604    0.0000 C   0  0  0  0  0  0  0  0  0  0  0  0
    2.8602   -3.2671    0.0000 C   0  0  0  0  0  0  0  0  0  0  0  0
    3.7320   -4.7637    0.0000 C   0  0  0  0  0  0  0  0  0  0  0  0
    5.4564   -2.7571    0.0000 C   0  0  0  0  0  0  0  0  0  0  0  0
    5.4525   -1.7571    0.0000 C   0  0  0  0  0  0  0  0  0  0  0  0
    2.0000   -4.7704    0.0000 C   0  0  0  0  0  0  0  0  0  0  0  0
    6.3166   -1.2537    0.0000 C   0  0  0  0  0  0  0  0  0  0  0  0
    7.1768    0.2496    0.0000 C   0  0  0  0  0  0  0  0  0  0  0  0
    7.1768    1.2912    0.0000 C   0  0  0  0  0  0  0  0  0  0  0  0
    8.9768    1.2704    0.0000 C   0  0  0  0  0  0  0  0  0  0  0  0
    8.0829   -0.2643    0.0000 C   0  0  0  0  0  0  0  0  0  0  0  0
    8.9768    0.2704    0.0000 C   0  0  0  0  0  0  0  0  0  0  0  0
    8.0829    1.8051    0.0000 C   0  0  0  0  0  0  0  0  0  0  0  0
    9.8429    1.7704    0.0000 C   0  0  0  0  0  0  0  0  0  0  0  0
   10.7089    1.2704    0.0000 C   0  0  0  0  0  0  0  0  0  0  0  0
   10.7089    0.2704    0.0000 C   0  0  0  0  0  0  0  0  0  0  0  0
   10.7089    3.2704    0.0000 C   0  0  0  0  0  0  0  0  0  0  0  0
   11.5749    2.7704    0.0000 C   0  0  0  0  0  0  0  0  0  0  0  0
    6.3166    2.7946    0.0000 C   0  0  0  0  0  0  0  0  0  0  0  0
   10.7089    4.2704    0.0000 C   0  0  0  0  0  0  0  0  0  0  0  0
   12.4410    3.2704    0.0000 C   0  0  0  0  0  0  0  0  0  0  0  0
   11.5749    1.7704    0.0000 C   0  0  0  0  0  0  0  0  0  0  0  0
   11.5749    4.7704    0.0000 C   0  0  0  0  0  0  0  0  0  0  0  0
   12.4410    4.2704    0.0000 C   0  0  0  0  0  0  0  0  0  0  0  0
   13.3070    1.7704    0.0000 C   0  0  0  0  0  0  0  0  0  0  0  0
    4.1210   -2.2873    0.0000 H   0  0  0  0  0  0  0  0  0  0  0  0
    3.3240   -2.2903    0.0000 H   0  0  0  0  0  0  0  0  0  0  0  0
    4.8104   -4.8422    0.0000 H   0  0  0  0  0  0  0  0  0  0  0  0
    5.2063   -4.1504    0.0000 H   0  0  0  0  0  0  0  0  0  0  0  0
    2.6459   -2.6853    0.0000 H   0  0  0  0  0  0  0  0  0  0  0  0
    2.2501   -3.3771    0.0000 H   0  0  0  0  0  0  0  0  0  0  0  0
    3.3353   -5.2402    0.0000 H   0  0  0  0  0  0  0  0  0  0  0  0
    4.1324   -5.2371    0.0000 H   0  0  0  0  0  0  0  0  0  0  0  0
    5.6707   -3.3388    0.0000 H   0  0  0  0  0  0  0  0  0  0  0  0
    6.0665   -2.6470    0.0000 H   0  0  0  0  0  0  0  0  0  0  0  0
    5.2382   -1.1753    0.0000 H   0  0  0  0  0  0  0  0  0  0  0  0
    4.8424   -1.8671    0.0000 H   0  0  0  0  0  0  0  0  0  0  0  0
    1.6879   -4.2347    0.0000 H   0  0  0  0  0  0  0  0  0  0  0  0
    1.4643   -5.0825    0.0000 H   0  0  0  0  0  0  0  0  0  0  0  0
    2.3121   -5.3061    0.0000 H   0  0  0  0  0  0  0  0  0  0  0  0
    6.5309   -1.8355    0.0000 H   0  0  0  0  0  0  0  0  0  0  0  0
    6.9268   -1.1437    0.0000 H   0  0  0  0  0  0  0  0  0  0  0  0
    8.0901   -0.8842    0.0000 H   0  0  0  0  0  0  0  0  0  0  0  0
    8.0901    2.4250    0.0000 H   0  0  0  0  0  0  0  0  0  0  0  0
    9.3059    3.0804    0.0000 H   0  0  0  0  0  0  0  0  0  0  0  0
   11.2458   -0.0396    0.0000 H   0  0  0  0  0  0  0  0  0  0  0  0
   11.5749    2.1504    0.0000 H   0  0  0  0  0  0  0  0  0  0  0  0
    6.9366    2.7922    0.0000 H   0  0  0  0  0  0  0  0  0  0  0  0
    6.3190    3.4145    0.0000 H   0  0  0  0  0  0  0  0  0  0  0  0
    5.6966    2.7969    0.0000 H   0  0  0  0  0  0  0  0  0  0  0  0
   11.5749    5.3904    0.0000 H   0  0  0  0  0  0  0  0  0  0  0  0
   12.6870    1.7704    0.0000 H   0  0  0  0  0  0  0  0  0  0  0  0
   13.3070    1.1504    0.0000 H   0  0  0  0  0  0  0  0  0  0  0  0
   13.9270    1.7704    0.0000 H   0  0  0  0  0  0  0  0  0  0  0  0
  1 31  1  0  0  0  0
  2 35  1  0  0  0  0
  3 18  1  0  0  0  0
  3 19  1  0  0  0  0
  4 20  1  0  0  0  0
  4 30  1  0  0  0  0
  5 32  1  0  0  0  0
  5 36  1  0  0  0  0
  6 11  1  0  0  0  0
  6 12  1  0  0  0  0
  6 15  1  0  0  0  0
  7 13  1  0  0  0  0
  7 14  1  0  0  0  0
  7 17  1  0  0  0  0
  8 25  1  0  0  0  0
  8 28  1  0  0  0  0
  8 56  1  0  0  0  0
  9 23  1  0  0  0  0
  9 27  2  0  0  0  0
 10 33  3  0  0  0  0
 11 13  1  0  0  0  0
 11 37  1  0  0  0  0
 11 38  1  0  0  0  0
 12 14  1  0  0  0  0
 12 39  1  0  0  0  0
 12 40  1  0  0  0  0
 13 41  1  0  0  0  0
 13 42  1  0  0  0  0
 14 43  1  0  0  0  0
 14 44  1  0  0  0  0
 15 16  1  0  0  0  0
 15 45  1  0  0  0  0
 15 46  1  0  0  0  0
 16 18  1  0  0  0  0
 16 47  1  0  0  0  0
 16 48  1  0  0  0  0
 17 49  1  0  0  0  0
 17 50  1  0  0  0  0
 17 51  1  0  0  0  0
 18 52  1  0  0  0  0
 18 53  1  0  0  0  0
 19 20  2  0  0  0  0
 19 22  1  0  0  0  0
 20 24  1  0  0  0  0
 21 23  1  0  0  0  0
 21 24  2  0  0  0  0
 21 25  1  0  0  0  0
 22 23  2  0  0  0  0
 22 54  1  0  0  0  0
 24 55  1  0  0  0  0
 25 26  2  0  0  0  0
 26 27  1  0  0  0  0
 26 33  1  0  0  0  0
 27 57  1  0  0  0  0
 28 29  2  0  0  0  0
 28 31  1  0  0  0  0
 29 32  1  0  0  0  0
 29 58  1  0  0  0  0
 30 59  1  0  0  0  0
 30 60  1  0  0  0  0
 30 61  1  0  0  0  0
 31 34  2  0  0  0  0
 32 35  2  0  0  0  0
 34 35  1  0  0  0  0
 34 62  1  0  0  0  0
 36 63  1  0  0  0  0
 36 64  1  0  0  0  0
 36 65  1  0  0  0  0
M  END
> <PUBCHEM_COMPOUND_CID>
5328940

> <PUBCHEM_COMPOUND_CANONICALIZED>
1

> <PUBCHEM_CACTVS_COMPLEXITY>
734

> <PUBCHEM_CACTVS_HBOND_ACCEPTOR>
8

> <PUBCHEM_CACTVS_HBOND_DONOR>
1

> <PUBCHEM_CACTVS_ROTATABLE_BOND>
9

> <PUBCHEM_CACTVS_SUBSKEYS>
AAADceB7sAAGAAAAAAAAAAAAAAAAAAAAAAA8eIEAAAAAAACx9AAAHgIQAAAADA7hniY+xvPIFACwBzRnRACiiCAxJ2AA2CA+75gN5uPF8tvWPCrm0BnK6A+w0PMOIGBBAgCCSBBAwIIEAQSQIAAAAAAAAA==

> <PUBCHEM_IUPAC_OPENEYE_NAME>
4-(2,4-dichloro-5-methoxy-anilino)-6-methoxy-7-[3-(4-methylpiperazin-1-yl)propoxy]quinoline-3-carbonitrile

> <PUBCHEM_IUPAC_CAS_NAME>
4-(2,4-dichloro-5-methoxyanilino)-6-methoxy-7-[3-(4-methyl-1-piperazinyl)propoxy]-3-quinolinecarbonitrile

> <PUBCHEM_IUPAC_NAME_MARKUP>
4-(2,4-dichloro-5-methoxyanilino)-6-methoxy-7-[3-(4-methylpiperazin-1-yl)propoxy]quinoline-3-carbonitrile

> <PUBCHEM_IUPAC_NAME>
4-(2,4-dichloro-5-methoxyanilino)-6-methoxy-7-[3-(4-methylpiperazin-1-yl)propoxy]quinoline-3-carbonitrile

> <PUBCHEM_IUPAC_SYSTEMATIC_NAME>
4-[[2,4-bis(chloranyl)-5-methoxy-phenyl]amino]-6-methoxy-7-[3-(4-methylpiperazin-1-yl)propoxy]quinoline-3-carbonitrile

> <PUBCHEM_IUPAC_TRADITIONAL_NAME>
4-(2,4-dichloro-5-methoxy-anilino)-6-methoxy-7-[3-(4-methylpiperazino)propoxy]quinoline-3-carbonitrile

> <PUBCHEM_IUPAC_INCHI>
InChI=1S/C26H29Cl2N5O3/c1-32-6-8-33(9-7-32)5-4-10-36-25-13-21-18(11-24(25)35-3)26(17(15-29)16-30-21)31-22-14-23(34-2)20(28)12-19(22)27/h11-14,16H,4-10H2,1-3H3,(H,30,31)

> <PUBCHEM_IUPAC_INCHIKEY>
UBPYILGKFZZVDX-UHFFFAOYSA-N

> <PUBCHEM_XLOGP3_AA>
5.4

> <PUBCHEM_EXACT_MASS>
529.1647452

> <PUBCHEM_MOLECULAR_FORMULA>
C26H29Cl2N5O3

> <PUBCHEM_MOLECULAR_WEIGHT>
530.4

> <PUBCHEM_OPENEYE_CAN_SMILES>
CN1CCN(CC1)CCCOC2=C(C=C3C(=C2)N=CC(=C3NC4=CC(=C(C=C4Cl)Cl)OC)C#N)OC

> <PUBCHEM_OPENEYE_ISO_SMILES>
CN1CCN(CC1)CCCOC2=C(C=C3C(=C2)N=CC(=C3NC4=CC(=C(C=C4Cl)Cl)OC)C#N)OC

> <PUBCHEM_CACTVS_TPSA>
82.9

> <PUBCHEM_MONOISOTOPIC_WEIGHT>
529.1647452

> <PUBCHEM_TOTAL_CHARGE>
0

> <PUBCHEM_HEAVY_ATOM_COUNT>
36

> <PUBCHEM_ATOM_DEF_STEREO_COUNT>
0

> <PUBCHEM_ATOM_UDEF_STEREO_COUNT>
0

> <PUBCHEM_BOND_DEF_STEREO_COUNT>
0

> <PUBCHEM_BOND_UDEF_STEREO_COUNT>
0

> <PUBCHEM_ISOTOPIC_ATOM_COUNT>
0

> <PUBCHEM_COMPONENT_COUNT>
1

> <PUBCHEM_CACTVS_TAUTO_COUNT>
-1

> <PUBCHEM_COORDINATE_TYPE>
1
5
255

> <PUBCHEM_BONDANNOTATIONS>
19  20  8
19  22  8
20  24  8
21  23  8
21  24  8
21  25  8
22  23  8
25  26  8
26  27  8
28  29  8
28  31  8
29  32  8
31  34  8
32  35  8
34  35  8
9  23  8
9  27  8

$$$$
57335384
  -OEChem-11282412102D

 68 71  0     0  0  0  0  0  0999 V2000
    3.3660    4.1160    0.0000 F   0  0  0  0  0  0  0  0  0  0  0  0
    2.0000    3.7500    0.0000 F   0  0  0  0  0  0  0  0  0  0  0  0
    2.3660    2.3840    0.0000 F   0  0  0  0  0  0  0  0  0  0  0  0
    5.4641   -6.2500    0.0000 O   0  0  0  0  0  0  0  0  0  0  0  0
    4.5981    0.2500    0.0000 O   0  0  0  0  0  0  0  0  0  0  0  0
    8.9282    5.7500    0.0000 O   0  0  0  0  0  0  0  0  0  0  0  0
    6.3301   -2.7500    0.0000 N   0  0  0  0  0  0  0  0  0  0  0  0
    6.3301   -4.7500    0.0000 N   0  0  0  0  0  0  0  0  0  0  0  0
    6.3301    1.2500    0.0000 N   0  0  0  0  0  0  0  0  0  0  0  0
    5.4641    2.7500    0.0000 N   0  0  0  0  0  0  0  0  0  0  0  0
    4.5981    1.2500    0.0000 N   0  0  0  0  0  0  0  0  0  0  0  0
    4.5981    4.2500    0.0000 N   0  0  0  0  0  0  0  0  0  0  0  0
    8.0622    4.2500    0.0000 N   0  0  0  0  0  0  0  0  0  0  0  0
    5.4641   -3.2500    0.0000 C   0  0  0  0  0  0  0  0  0  0  0  0
    7.1962   -3.2500    0.0000 C   0  0  0  0  0  0  0  0  0  0  0  0
    5.4641   -4.2500    0.0000 C   0  0  0  0  0  0  0  0  0  0  0  0
    7.1962   -4.2500    0.0000 C   0  0  0  0  0  0  0  0  0  0  0  0
    6.3301   -1.7500    0.0000 C   0  0  0  0  0  0  0  0  0  0  0  0
    6.3301   -5.7500    0.0000 C   0  0  0  0  0  0  0  0  0  0  0  0
    5.4641   -1.2500    0.0000 C   0  0  0  0  0  0  0  0  0  0  0  0
    7.1962   -1.2500    0.0000 C   0  0  0  0  0  0  0  0  0  0  0  0
    5.4641   -0.2500    0.0000 C   0  0  0  0  0  0  0  0  0  0  0  0
    7.1962   -6.2500    0.0000 C   0  0  0  0  0  0  0  0  0  0  0  0
    7.1962   -0.2500    0.0000 C   0  0  0  0  0  0  0  0  0  0  0  0
    6.3301    0.2500    0.0000 C   0  0  0  0  0  0  0  0  0  0  0  0
    5.4641    1.7500    0.0000 C   0  0  0  0  0  0  0  0  0  0  0  0
    3.7320   -0.2500    0.0000 C   0  0  0  0  0  0  0  0  0  0  0  0
    4.5981    3.2500    0.0000 C   0  0  0  0  0  0  0  0  0  0  0  0
    3.7320    2.7500    0.0000 C   0  0  0  0  0  0  0  0  0  0  0  0
    3.7320    1.7500    0.0000 C   0  0  0  0  0  0  0  0  0  0  0  0
    5.4641    4.7500    0.0000 C   0  0  0  0  0  0  0  0  0  0  0  0
    2.8660    3.2500    0.0000 C   0  0  0  0  0  0  0  0  0  0  0  0
    6.3301    4.2500    0.0000 C   0  0  0  0  0  0  0  0  0  0  0  0
    5.4641    5.7500    0.0000 C   0  0  0  0  0  0  0  0  0  0  0  0
    7.1962    4.7500    0.0000 C   0  0  0  0  0  0  0  0  0  0  0  0
    6.3301    6.2500    0.0000 C   0  0  0  0  0  0  0  0  0  0  0  0
    7.1962    5.7500    0.0000 C   0  0  0  0  0  0  0  0  0  0  0  0
    8.9282    4.7500    0.0000 C   0  0  0  0  0  0  0  0  0  0  0  0
    9.7942    4.2500    0.0000 C   0  0  0  0  0  0  0  0  0  0  0  0
   10.6603    4.7500    0.0000 C   0  0  0  0  0  0  0  0  0  0  0  0
    5.2520   -2.6674    0.0000 H   0  0  0  0  0  0  0  0  0  0  0  0
    4.8535   -3.3577    0.0000 H   0  0  0  0  0  0  0  0  0  0  0  0
    7.8067   -3.3577    0.0000 H   0  0  0  0  0  0  0  0  0  0  0  0
    7.4082   -2.6674    0.0000 H   0  0  0  0  0  0  0  0  0  0  0  0
    4.8535   -4.1423    0.0000 H   0  0  0  0  0  0  0  0  0  0  0  0
    5.2520   -4.8326    0.0000 H   0  0  0  0  0  0  0  0  0  0  0  0
    7.4082   -4.8326    0.0000 H   0  0  0  0  0  0  0  0  0  0  0  0
    7.8067   -4.1423    0.0000 H   0  0  0  0  0  0  0  0  0  0  0  0
    4.9272   -1.5600    0.0000 H   0  0  0  0  0  0  0  0  0  0  0  0
    7.7331   -1.5600    0.0000 H   0  0  0  0  0  0  0  0  0  0  0  0
    6.8862   -6.7869    0.0000 H   0  0  0  0  0  0  0  0  0  0  0  0
    7.7331   -6.5600    0.0000 H   0  0  0  0  0  0  0  0  0  0  0  0
    7.5062   -5.7131    0.0000 H   0  0  0  0  0  0  0  0  0  0  0  0
    7.7331    0.0600    0.0000 H   0  0  0  0  0  0  0  0  0  0  0  0
    6.8671    1.5600    0.0000 H   0  0  0  0  0  0  0  0  0  0  0  0
    3.4220    0.2869    0.0000 H   0  0  0  0  0  0  0  0  0  0  0  0
    3.1951   -0.5600    0.0000 H   0  0  0  0  0  0  0  0  0  0  0  0
    4.0420   -0.7869    0.0000 H   0  0  0  0  0  0  0  0  0  0  0  0
    3.1951    1.4400    0.0000 H   0  0  0  0  0  0  0  0  0  0  0  0
    4.0611    4.5600    0.0000 H   0  0  0  0  0  0  0  0  0  0  0  0
    6.3301    3.6300    0.0000 H   0  0  0  0  0  0  0  0  0  0  0  0
    4.9272    6.0600    0.0000 H   0  0  0  0  0  0  0  0  0  0  0  0
    6.3301    6.8700    0.0000 H   0  0  0  0  0  0  0  0  0  0  0  0
    7.7331    6.0600    0.0000 H   0  0  0  0  0  0  0  0  0  0  0  0
    8.0622    3.6300    0.0000 H   0  0  0  0  0  0  0  0  0  0  0  0
    9.7942    3.6300    0.0000 H   0  0  0  0  0  0  0  0  0  0  0  0
   11.1972    4.4400    0.0000 H   0  0  0  0  0  0  0  0  0  0  0  0
   10.6603    5.3700    0.0000 H   0  0  0  0  0  0  0  0  0  0  0  0
  1 32  1  0  0  0  0
  2 32  1  0  0  0  0
  3 32  1  0  0  0  0
  4 19  2  0  0  0  0
  5 22  1  0  0  0  0
  5 27  1  0  0  0  0
  6 38  2  0  0  0  0
  7 14  1  0  0  0  0
  7 15  1  0  0  0  0
  7 18  1  0  0  0  0
  8 16  1  0  0  0  0
  8 17  1  0  0  0  0
  8 19  1  0  0  0  0
  9 25  1  0  0  0  0
  9 26  1  0  0  0  0
  9 55  1  0  0  0  0
 10 26  1  0  0  0  0
 10 28  2  0  0  0  0
 11 26  2  0  0  0  0
 11 30  1  0  0  0  0
 12 28  1  0  0  0  0
 12 31  1  0  0  0  0
 12 60  1  0  0  0  0
 13 35  1  0  0  0  0
 13 38  1  0  0  0  0
 13 65  1  0  0  0  0
 14 16  1  0  0  0  0
 14 41  1  0  0  0  0
 14 42  1  0  0  0  0
 15 17  1  0  0  0  0
 15 43  1  0  0  0  0
 15 44  1  0  0  0  0
 16 45  1  0  0  0  0
 16 46  1  0  0  0  0
 17 47  1  0  0  0  0
 17 48  1  0  0  0  0
 18 20  2  0  0  0  0
 18 21  1  0  0  0  0
 19 23  1  0  0  0  0
 20 22  1  0  0  0  0
 20 49  1  0  0  0  0
 21 24  2  0  0  0  0
 21 50  1  0  0  0  0
 22 25  2  0  0  0  0
 23 51  1  0  0  0  0
 23 52  1  0  0  0  0
 23 53  1  0  0  0  0
 24 25  1  0  0  0  0
 24 54  1  0  0  0  0
 27 56  1  0  0  0  0
 27 57  1  0  0  0  0
 27 58  1  0  0  0  0
 28 29  1  0  0  0  0
 29 30  2  0  0  0  0
 29 32  1  0  0  0  0
 30 59  1  0  0  0  0
 31 33  2  0  0  0  0
 31 34  1  0  0  0  0
 33 35  1  0  0  0  0
 33 61  1  0  0  0  0
 34 36  2  0  0  0  0
 34 62  1  0  0  0  0
 35 37  2  0  0  0  0
 36 37  1  0  0  0  0
 36 63  1  0  0  0  0
 37 64  1  0  0  0  0
 38 39  1  0  0  0  0
 39 40  2  0  0  0  0
 39 66  1  0  0  0  0
 40 67  1  0  0  0  0
 40 68  1  0  0  0  0
M  END
> <PUBCHEM_COMPOUND_CID>
57335384

> <PUBCHEM_COMPOUND_CANONICALIZED>
1

> <PUBCHEM_CACTVS_COMPLEXITY>
871

> <PUBCHEM_CACTVS_HBOND_ACCEPTOR>
11

> <PUBCHEM_CACTVS_HBOND_DONOR>
3

> <PUBCHEM_CACTVS_ROTATABLE_BOND>
8

> <PUBCHEM_CACTVS_SUBSKEYS>
AAADceB7sYAAAAAAAAAAAAAAAAAAAAAAAAA8eIEAAAAAAAAB0AAAHwAQAAAADAzBmhY/9pfIFACoAjd3dACCiCkxIqAJ2CAvbNiObuLE+duVNChu1hvY6KeQUAMAAACAAgQAEAAAAQAECAAgAAAAAAAAAA==

> <PUBCHEM_IUPAC_OPENEYE_NAME>
N-[3-[[2-[4-(4-acetylpiperazin-1-yl)-2-methoxy-anilino]-5-(trifluoromethyl)pyrimidin-4-yl]amino]phenyl]prop-2-enamide

> <PUBCHEM_IUPAC_CAS_NAME>
N-[3-[[2-[4-(4-acetyl-1-piperazinyl)-2-methoxyanilino]-5-(trifluoromethyl)-4-pyrimidinyl]amino]phenyl]-2-propenamide

> <PUBCHEM_IUPAC_NAME_MARKUP>
<I>N</I>-[3-[[2-[4-(4-acetylpiperazin-1-yl)-2-methoxyanilino]-5-(trifluoromethyl)pyrimidin-4-yl]amino]phenyl]prop-2-enamide

> <PUBCHEM_IUPAC_NAME>
N-[3-[[2-[4-(4-acetylpiperazin-1-yl)-2-methoxyanilino]-5-(trifluoromethyl)pyrimidin-4-yl]amino]phenyl]prop-2-enamide

> <PUBCHEM_IUPAC_SYSTEMATIC_NAME>
N-[3-[[2-[[4-(4-ethanoylpiperazin-1-yl)-2-methoxy-phenyl]amino]-5-(trifluoromethyl)pyrimidin-4-yl]amino]phenyl]prop-2-enamide

> <PUBCHEM_IUPAC_TRADITIONAL_NAME>
N-[3-[[2-[4-(4-acetylpiperazino)-2-methoxy-anilino]-5-(trifluoromethyl)pyrimidin-4-yl]amino]phenyl]acrylamide

> <PUBCHEM_IUPAC_INCHI>
InChI=1S/C27H28F3N7O3/c1-4-24(39)32-18-6-5-7-19(14-18)33-25-21(27(28,29)30)16-31-26(35-25)34-22-9-8-20(15-23(22)40-3)37-12-10-36(11-13-37)17(2)38/h4-9,14-16H,1,10-13H2,2-3H3,(H,32,39)(H2,31,33,34,35)

> <PUBCHEM_IUPAC_INCHIKEY>
HUFOZJXAKZVRNJ-UHFFFAOYSA-N

> <PUBCHEM_XLOGP3_AA>
4

> <PUBCHEM_EXACT_MASS>
555.22057227

> <PUBCHEM_MOLECULAR_FORMULA>
C27H28F3N7O3

> <PUBCHEM_MOLECULAR_WEIGHT>
555.6

> <PUBCHEM_OPENEYE_CAN_SMILES>
CC(=O)N1CCN(CC1)C2=CC(=C(C=C2)NC3=NC=C(C(=N3)NC4=CC(=CC=C4)NC(=O)C=C)C(F)(F)F)OC

> <PUBCHEM_OPENEYE_ISO_SMILES>
CC(=O)N1CCN(CC1)C2=CC(=C(C=C2)NC3=NC=C(C(=N3)NC4=CC(=CC=C4)NC(=O)C=C)C(F)(F)F)OC

> <PUBCHEM_CACTVS_TPSA>
112

> <PUBCHEM_MONOISOTOPIC_WEIGHT>
555.22057227

> <PUBCHEM_TOTAL_CHARGE>
0

> <PUBCHEM_HEAVY_ATOM_COUNT>
40

> <PUBCHEM_ATOM_DEF_STEREO_COUNT>
0

> <PUBCHEM_ATOM_UDEF_STEREO_COUNT>
0

> <PUBCHEM_BOND_DEF_STEREO_COUNT>
0

> <PUBCHEM_BOND_UDEF_STEREO_COUNT>
0

> <PUBCHEM_ISOTOPIC_ATOM_COUNT>
0

> <PUBCHEM_COMPONENT_COUNT>
1

> <PUBCHEM_CACTVS_TAUTO_COUNT>
-1

> <PUBCHEM_COORDINATE_TYPE>
1
5
255

> <PUBCHEM_BONDANNOTATIONS>
10  26  8
10  28  8
11  26  8
11  30  8
18  20  8
18  21  8
20  22  8
21  24  8
22  25  8
24  25  8
28  29  8
29  30  8
31  33  8
31  34  8
33  35  8
34  36  8
35  37  8
36  37  8

$$$$
72165228
  -OEChem-11282412102D

 49 52  0     1  0  0  0  0  0999 V2000
    3.0000   -4.7694    0.0000 Cl  0  0  0  0  0  0  0  0  0  0  0  0
    2.0000   -3.7694    0.0000 F   0  0  0  0  0  0  0  0  0  0  0  0
    4.0000   -3.7694    0.0000 F   0  0  0  0  0  0  0  0  0  0  0  0
   12.5054    2.4625    0.0000 O   0  0  0  0  0  0  0  0  0  0  0  0
    5.5981    0.7306    0.0000 O   0  0  0  0  0  0  0  0  0  0  0  0
    3.0000   -2.7694    0.0000 O   0  0  0  0  0  0  0  0  0  0  0  0
    9.9282    2.2306    0.0000 N   0  0  3  0  0  0  0  0  0  0  0  0
    9.0622    0.7306    0.0000 N   0  0  0  0  0  0  0  0  0  0  0  0
    7.3871    3.8184    0.0000 N   0  0  0  0  0  0  0  0  0  0  0  0
    7.6962    4.7694    0.0000 N   0  0  0  0  0  0  0  0  0  0  0  0
    6.4641   -0.7694    0.0000 N   0  0  0  0  0  0  0  0  0  0  0  0
   11.5109    2.5670    0.0000 C   0  0  2  0  0  0  0  0  0  0  0  0
   11.0109    3.4330    0.0000 C   0  0  0  0  0  0  0  0  0  0  0  0
   10.8417    1.8238    0.0000 C   0  0  0  0  0  0  0  0  0  0  0  0
   10.0327    3.2251    0.0000 C   0  0  0  0  0  0  0  0  0  0  0  0
    9.0622    1.7306    0.0000 C   0  0  0  0  0  0  0  0  0  0  0  0
    8.1962    2.2306    0.0000 C   0  0  0  0  0  0  0  0  0  0  0  0
    7.3301    1.7306    0.0000 C   0  0  0  0  0  0  0  0  0  0  0  0
    8.1962    3.2306    0.0000 C   0  0  0  0  0  0  0  0  0  0  0  0
    7.3301    0.7306    0.0000 C   0  0  0  0  0  0  0  0  0  0  0  0
    8.1962    0.2306    0.0000 C   0  0  0  0  0  0  0  0  0  0  0  0
    9.0052    3.8184    0.0000 C   0  0  0  0  0  0  0  0  0  0  0  0
    6.4641    0.2306    0.0000 C   0  0  0  0  0  0  0  0  0  0  0  0
    8.6962    4.7694    0.0000 C   0  0  0  0  0  0  0  0  0  0  0  0
    5.5981   -1.2694    0.0000 C   0  0  0  0  0  0  0  0  0  0  0  0
    4.7320   -0.7694    0.0000 C   0  0  0  0  0  0  0  0  0  0  0  0
    5.5981   -2.2694    0.0000 C   0  0  0  0  0  0  0  0  0  0  0  0
    3.8660   -1.2694    0.0000 C   0  0  0  0  0  0  0  0  0  0  0  0
    4.7320   -2.7694    0.0000 C   0  0  0  0  0  0  0  0  0  0  0  0
    3.8660   -2.2694    0.0000 C   0  0  0  0  0  0  0  0  0  0  0  0
    3.0000   -3.7694    0.0000 C   0  0  0  0  0  0  0  0  0  0  0  0
   11.7331    1.9882    0.0000 H   0  0  0  0  0  0  0  0  0  0  0  0
   11.5773    3.6852    0.0000 H   0  0  0  0  0  0  0  0  0  0  0  0
   10.8193    4.0227    0.0000 H   0  0  0  0  0  0  0  0  0  0  0  0
   10.5317    1.2869    0.0000 H   0  0  0  0  0  0  0  0  0  0  0  0
   11.3433    1.4594    0.0000 H   0  0  0  0  0  0  0  0  0  0  0  0
    9.9679    3.8417    0.0000 H   0  0  0  0  0  0  0  0  0  0  0  0
    9.4127    3.2251    0.0000 H   0  0  0  0  0  0  0  0  0  0  0  0
   12.8698    2.9640    0.0000 H   0  0  0  0  0  0  0  0  0  0  0  0
    6.7932    2.0406    0.0000 H   0  0  0  0  0  0  0  0  0  0  0  0
    8.1962   -0.3894    0.0000 H   0  0  0  0  0  0  0  0  0  0  0  0
    9.5948    3.6268    0.0000 H   0  0  0  0  0  0  0  0  0  0  0  0
    6.7975    3.6268    0.0000 H   0  0  0  0  0  0  0  0  0  0  0  0
    9.0606    5.2710    0.0000 H   0  0  0  0  0  0  0  0  0  0  0  0
    7.0010   -1.0794    0.0000 H   0  0  0  0  0  0  0  0  0  0  0  0
    4.7320   -0.1494    0.0000 H   0  0  0  0  0  0  0  0  0  0  0  0
    6.1350   -2.5794    0.0000 H   0  0  0  0  0  0  0  0  0  0  0  0
    3.3291   -0.9594    0.0000 H   0  0  0  0  0  0  0  0  0  0  0  0
    4.7320   -3.3894    0.0000 H   0  0  0  0  0  0  0  0  0  0  0  0
  1 31  1  0  0  0  0
  2 31  1  0  0  0  0
  3 31  1  0  0  0  0
 12  4  1  1  0  0  0
  4 39  1  0  0  0  0
  5 23  2  0  0  0  0
  6 30  1  0  0  0  0
  6 31  1  0  0  0  0
  7 14  1  0  0  0  0
  7 15  1  0  0  0  0
  7 16  1  0  0  0  0
  8 16  1  0  0  0  0
  8 21  2  0  0  0  0
  9 10  1  0  0  0  0
  9 19  1  0  0  0  0
  9 43  1  0  0  0  0
 10 24  2  0  0  0  0
 11 23  1  0  0  0  0
 11 25  1  0  0  0  0
 11 45  1  0  0  0  0
 12 13  1  0  0  0  0
 12 14  1  0  0  0  0
 12 32  1  0  0  0  0
 13 15  1  0  0  0  0
 13 33  1  0  0  0  0
 13 34  1  0  0  0  0
 14 35  1  0  0  0  0
 14 36  1  0  0  0  0
 15 37  1  0  0  0  0
 15 38  1  0  0  0  0
 16 17  2  0  0  0  0
 17 18  1  0  0  0  0
 17 19  1  0  0  0  0
 18 20  2  0  0  0  0
 18 40  1  0  0  0  0
 19 22  2  0  0  0  0
 20 21  1  0  0  0  0
 20 23  1  0  0  0  0
 21 41  1  0  0  0  0
 22 24  1  0  0  0  0
 22 42  1  0  0  0  0
 24 44  1  0  0  0  0
 25 26  2  0  0  0  0
 25 27  1  0  0  0  0
 26 28  1  0  0  0  0
 26 46  1  0  0  0  0
 27 29  2  0  0  0  0
 27 47  1  0  0  0  0
 28 30  2  0  0  0  0
 28 48  1  0  0  0  0
 29 30  1  0  0  0  0
 29 49  1  0  0  0  0
M  END
> <PUBCHEM_COMPOUND_CID>
72165228

> <PUBCHEM_COMPOUND_CANONICALIZED>
1

> <PUBCHEM_CACTVS_COMPLEXITY>
626

> <PUBCHEM_CACTVS_HBOND_ACCEPTOR>
8

> <PUBCHEM_CACTVS_HBOND_DONOR>
3

> <PUBCHEM_CACTVS_ROTATABLE_BOND>
6

> <PUBCHEM_CACTVS_SUBSKEYS>
AAADceB7sYAEAAAAAAAAAAAAAAAAAWLAAAA8QAAAAAAAAAAB8AAAHwIYCAAADBzhnhY99pPrFgCqAzd3dACSjCk1oiAZ+SE+bNiONvrE/duE9ahu3BPY6ee4yUCeAEAAAAAAAAAAgAAAAAAAAAAAAAAAAA==

> <PUBCHEM_IUPAC_OPENEYE_NAME>
N-[4-[chloro(difluoro)methoxy]phenyl]-6-[(3R)-3-hydroxypyrrolidin-1-yl]-5-(1H-pyrazol-5-yl)pyridine-3-carboxamide

> <PUBCHEM_IUPAC_CAS_NAME>
N-[4-[chloro(difluoro)methoxy]phenyl]-6-[(3R)-3-hydroxy-1-pyrrolidinyl]-5-(1H-pyrazol-5-yl)-3-pyridinecarboxamide

> <PUBCHEM_IUPAC_NAME_MARKUP>
<I>N</I>-[4-[chloro(difluoro)methoxy]phenyl]-6-[(3<I>R</I>)-3-hydroxypyrrolidin-1-yl]-5-(1<I>H</I>-pyrazol-5-yl)pyridine-3-carboxamide

> <PUBCHEM_IUPAC_NAME>
N-[4-[chloro(difluoro)methoxy]phenyl]-6-[(3R)-3-hydroxypyrrolidin-1-yl]-5-(1H-pyrazol-5-yl)pyridine-3-carboxamide

> <PUBCHEM_IUPAC_SYSTEMATIC_NAME>
N-[4-[chloranyl-bis(fluoranyl)methoxy]phenyl]-6-[(3R)-3-oxidanylpyrrolidin-1-yl]-5-(1H-pyrazol-5-yl)pyridine-3-carboxamide

> <PUBCHEM_IUPAC_TRADITIONAL_NAME>
N-[4-[chloro(difluoro)methoxy]phenyl]-6-[(3R)-3-hydroxypyrrolidino]-5-(1H-pyrazol-5-yl)nicotinamide

> <PUBCHEM_IUPAC_INCHI>
InChI=1S/C20H18ClF2N5O3/c21-20(22,23)31-15-3-1-13(2-4-15)26-19(30)12-9-16(17-5-7-25-27-17)18(24-10-12)28-8-6-14(29)11-28/h1-5,7,9-10,14,29H,6,8,11H2,(H,25,27)(H,26,30)/t14-/m1/s1

> <PUBCHEM_IUPAC_INCHIKEY>
VOVZXURTCKPRDQ-CQSZACIVSA-N

> <PUBCHEM_XLOGP3_AA>
3

> <PUBCHEM_EXACT_MASS>
449.1066235

> <PUBCHEM_MOLECULAR_FORMULA>
C20H18ClF2N5O3

> <PUBCHEM_MOLECULAR_WEIGHT>
449.8

> <PUBCHEM_OPENEYE_CAN_SMILES>
C1CN(CC1O)C2=C(C=C(C=N2)C(=O)NC3=CC=C(C=C3)OC(F)(F)Cl)C4=CC=NN4

> <PUBCHEM_OPENEYE_ISO_SMILES>
C1CN(C[C@@H]1O)C2=C(C=C(C=N2)C(=O)NC3=CC=C(C=C3)OC(F)(F)Cl)C4=CC=NN4

> <PUBCHEM_CACTVS_TPSA>
103

> <PUBCHEM_MONOISOTOPIC_WEIGHT>
449.1066235

> <PUBCHEM_TOTAL_CHARGE>
0

> <PUBCHEM_HEAVY_ATOM_COUNT>
31

> <PUBCHEM_ATOM_DEF_STEREO_COUNT>
1

> <PUBCHEM_ATOM_UDEF_STEREO_COUNT>
0

> <PUBCHEM_BOND_DEF_STEREO_COUNT>
0

> <PUBCHEM_BOND_UDEF_STEREO_COUNT>
0

> <PUBCHEM_ISOTOPIC_ATOM_COUNT>
0

> <PUBCHEM_COMPONENT_COUNT>
1

> <PUBCHEM_CACTVS_TAUTO_COUNT>
-1

> <PUBCHEM_COORDINATE_TYPE>
1
5
255

> <PUBCHEM_BONDANNOTATIONS>
10  24  8
16  17  8
17  18  8
18  20  8
19  22  8
20  21  8
22  24  8
25  26  8
25  27  8
26  28  8
27  29  8
28  30  8
29  30  8
12  4  5
8  16  8
8  21  8
9  10  8
9  19  8

$$$$
11547978
  -OEChem-11282412102D

 56 57  0     0  0  0  0  0  0999 V2000
    5.7977    7.6744    0.0000 Cl  0  0  0  0  0  0  0  0  0  0  0  0
    5.6110    9.6863    0.0000 Cl  0  0  0  0  0  0  0  0  0  0  0  0
    4.1005    4.6546    0.0000 O   0  0  0  0  0  0  0  0  0  0  0  0
    0.6200    3.6200    0.0000 O   0  0  0  0  0  0  0  0  0  0  0  0
    0.6200    1.6200    0.0000 O   0  0  0  0  0  0  0  0  0  0  0  0
   11.7313    5.9065    0.0000 O   0  0  0  0  0  0  0  0  0  0  0  0
    8.4245    5.2046    0.0000 O   0  0  0  0  0  0  0  0  0  0  0  0
    6.1110   12.2012    0.0000 O   0  0  0  0  0  0  0  0  0  0  0  0
    4.1120    1.5853    0.0000 N   0  0  0  0  0  0  0  0  0  0  0  0
    7.5412    6.6945    0.0000 N   0  0  0  0  0  0  0  0  0  0  0  0
    9.2731    6.7146    0.0000 N   0  0  0  0  0  0  0  0  0  0  0  0
   11.0537    6.6419    0.0000 N   0  0  0  0  0  0  0  0  0  0  0  0
    3.2181    3.1200    0.0000 C   0  0  0  0  0  0  0  0  0  0  0  0
    3.2181    2.1200    0.0000 C   0  0  0  0  0  0  0  0  0  0  0  0
    4.1120    3.6547    0.0000 C   0  0  0  0  0  0  0  0  0  0  0  0
    2.3521    3.6200    0.0000 C   0  0  0  0  0  0  0  0  0  0  0  0
    1.4860    3.1200    0.0000 C   0  0  0  0  0  0  0  0  0  0  0  0
    2.3521    1.6200    0.0000 C   0  0  0  0  0  0  0  0  0  0  0  0
    1.4860    2.1200    0.0000 C   0  0  0  0  0  0  0  0  0  0  0  0
    5.0181    3.1408    0.0000 C   0  0  0  0  0  0  0  0  0  0  0  0
    4.9606    5.1646    0.0000 C   0  0  0  0  0  0  0  0  0  0  0  0
    5.0181    2.0992    0.0000 C   0  0  0  0  0  0  0  0  0  0  0  0
    6.6810    6.1845    0.0000 C   0  0  0  0  0  0  0  0  0  0  0  0
    4.9491    6.1645    0.0000 C   0  0  0  0  0  0  0  0  0  0  0  0
    5.8324    4.6746    0.0000 C   0  0  0  0  0  0  0  0  0  0  0  0
    5.8093    6.6745    0.0000 C   0  0  0  0  0  0  0  0  0  0  0  0
    6.6926    5.1846    0.0000 C   0  0  0  0  0  0  0  0  0  0  0  0
    8.4130    6.2046    0.0000 C   0  0  0  0  0  0  0  0  0  0  0  0
    0.6200    4.6200    0.0000 C   0  0  0  0  0  0  0  0  0  0  0  0
    0.6200    0.6200    0.0000 C   0  0  0  0  0  0  0  0  0  0  0  0
   10.1449    6.2246    0.0000 C   0  0  0  0  0  0  0  0  0  0  0  0
   10.2609    5.2314    0.0000 C   0  0  0  0  0  0  0  0  0  0  0  0
   11.2414    5.0348    0.0000 C   0  0  0  0  0  0  0  0  0  0  0  0
   11.6587    4.1260    0.0000 C   0  0  0  0  0  0  0  0  0  0  0  0
    2.3521    4.2400    0.0000 H   0  0  0  0  0  0  0  0  0  0  0  0
    2.3521    1.0000    0.0000 H   0  0  0  0  0  0  0  0  0  0  0  0
    5.5538    3.4529    0.0000 H   0  0  0  0  0  0  0  0  0  0  0  0
    5.5538    1.7871    0.0000 H   0  0  0  0  0  0  0  0  0  0  0  0
    4.4086    6.4683    0.0000 H   0  0  0  0  0  0  0  0  0  0  0  0
    5.8396    4.0547    0.0000 H   0  0  0  0  0  0  0  0  0  0  0  0
    7.2331    4.8808    0.0000 H   0  0  0  0  0  0  0  0  0  0  0  0
    7.5340    7.3145    0.0000 H   0  0  0  0  0  0  0  0  0  0  0  0
    1.2400    4.6200    0.0000 H   0  0  0  0  0  0  0  0  0  0  0  0
    0.6200    5.2400    0.0000 H   0  0  0  0  0  0  0  0  0  0  0  0
    0.0000    4.6200    0.0000 H   0  0  0  0  0  0  0  0  0  0  0  0
    0.0000    0.6200    0.0000 H   0  0  0  0  0  0  0  0  0  0  0  0
    0.6200    0.0000    0.0000 H   0  0  0  0  0  0  0  0  0  0  0  0
    1.2400    0.6200    0.0000 H   0  0  0  0  0  0  0  0  0  0  0  0
    9.2660    7.3345    0.0000 H   0  0  0  0  0  0  0  0  0  0  0  0
    9.8050    4.8112    0.0000 H   0  0  0  0  0  0  0  0  0  0  0  0
   11.0952    3.8673    0.0000 H   0  0  0  0  0  0  0  0  0  0  0  0
   11.9174    3.5625    0.0000 H   0  0  0  0  0  0  0  0  0  0  0  0
   12.2221    4.3847    0.0000 H   0  0  0  0  0  0  0  0  0  0  0  0
    6.6480   12.5112    0.0000 H   0  0  0  0  0  0  0  0  0  0  0  0
    5.5741   12.5112    0.0000 H   0  0  0  0  0  0  0  0  0  0  0  0
    6.6110    9.6863    0.0000 H   0  0  0  0  0  0  0  0  0  0  0  0
  1 26  1  0  0  0  0
  2 56  1  0  0  0  0
  3 15  1  0  0  0  0
  3 21  1  0  0  0  0
  4 17  1  0  0  0  0
  4 29  1  0  0  0  0
  5 19  1  0  0  0  0
  5 30  1  0  0  0  0
  6 12  1  0  0  0  0
  6 33  1  0  0  0  0
  7 28  2  0  0  0  0
  8 54  1  0  0  0  0
  8 55  1  0  0  0  0
  9 14  2  0  0  0  0
  9 22  1  0  0  0  0
 10 23  1  0  0  0  0
 10 28  1  0  0  0  0
 10 42  1  0  0  0  0
 11 28  1  0  0  0  0
 11 31  1  0  0  0  0
 11 49  1  0  0  0  0
 12 31  2  0  0  0  0
 13 14  1  0  0  0  0
 13 15  2  0  0  0  0
 13 16  1  0  0  0  0
 14 18  1  0  0  0  0
 15 20  1  0  0  0  0
 16 17  2  0  0  0  0
 16 35  1  0  0  0  0
 17 19  1  0  0  0  0
 18 19  2  0  0  0  0
 18 36  1  0  0  0  0
 20 22  2  0  0  0  0
 20 37  1  0  0  0  0
 21 24  2  0  0  0  0
 21 25  1  0  0  0  0
 22 38  1  0  0  0  0
 23 26  2  0  0  0  0
 23 27  1  0  0  0  0
 24 26  1  0  0  0  0
 24 39  1  0  0  0  0
 25 27  2  0  0  0  0
 25 40  1  0  0  0  0
 27 41  1  0  0  0  0
 29 43  1  0  0  0  0
 29 44  1  0  0  0  0
 29 45  1  0  0  0  0
 30 46  1  0  0  0  0
 30 47  1  0  0  0  0
 30 48  1  0  0  0  0
 31 32  1  0  0  0  0
 32 33  2  0  0  0  0
 32 50  1  0  0  0  0
 33 34  1  0  0  0  0
 34 51  1  0  0  0  0
 34 52  1  0  0  0  0
 34 53  1  0  0  0  0
M  END
> <PUBCHEM_COMPOUND_CID>
11547978

> <PUBCHEM_COMPOUND_CANONICALIZED>
1

> <PUBCHEM_CACTVS_COMPLEXITY>
631

> <PUBCHEM_CACTVS_HBOND_ACCEPTOR>
8

> <PUBCHEM_CACTVS_HBOND_DONOR>
4

> <PUBCHEM_CACTVS_ROTATABLE_BOND>
6

> <PUBCHEM_CACTVS_SUBSKEYS>
AAADceB7uAAGAAAAAAAAAAAAAAAAAWAAAAA8YIAAAAAAAACx/AAAHgIUCAAADA7BniY/9vLYFACpA7Z3dgCCiCA1JyAp2CE+7tqNJurFs5vGOKru1RvK6Gfw8L8OIEABAwACQBBAgAIGAASAIAAAAAAAAA==

> <PUBCHEM_IUPAC_OPENEYE_NAME>
1-[2-chloro-4-[(6,7-dimethoxy-4-quinolyl)oxy]phenyl]-3-(5-methylisoxazol-3-yl)urea;hydrate;hydrochloride

> <PUBCHEM_IUPAC_CAS_NAME>
1-[2-chloro-4-[(6,7-dimethoxy-4-quinolinyl)oxy]phenyl]-3-(5-methyl-3-isoxazolyl)urea;hydrate;hydrochloride

> <PUBCHEM_IUPAC_NAME_MARKUP>
1-[2-chloro-4-(6,7-dimethoxyquinolin-4-yl)oxyphenyl]-3-(5-methyl-1,2-oxazol-3-yl)urea;hydrate;hydrochloride

> <PUBCHEM_IUPAC_NAME>
1-[2-chloro-4-(6,7-dimethoxyquinolin-4-yl)oxyphenyl]-3-(5-methyl-1,2-oxazol-3-yl)urea;hydrate;hydrochloride

> <PUBCHEM_IUPAC_SYSTEMATIC_NAME>
1-[2-chloranyl-4-(6,7-dimethoxyquinolin-4-yl)oxy-phenyl]-3-(5-methyl-1,2-oxazol-3-yl)urea;hydrate;hydrochloride

> <PUBCHEM_IUPAC_TRADITIONAL_NAME>
1-[2-chloro-4-[(6,7-dimethoxy-4-quinolyl)oxy]phenyl]-3-(5-methylisoxazol-3-yl)urea;hydrate;hydrochloride

> <PUBCHEM_IUPAC_INCHI>
InChI=1S/C22H19ClN4O5.ClH.H2O/c1-12-8-21(27-32-12)26-22(28)25-16-5-4-13(9-15(16)23)31-18-6-7-24-17-11-20(30-3)19(29-2)10-14(17)18;;/h4-11H,1-3H3,(H2,25,26,27,28);1H;1H2

> <PUBCHEM_IUPAC_INCHIKEY>
RQXMKRRBJITKRN-UHFFFAOYSA-N

> <PUBCHEM_EXACT_MASS>
508.0916398

> <PUBCHEM_MOLECULAR_FORMULA>
C22H22Cl2N4O6

> <PUBCHEM_MOLECULAR_WEIGHT>
509.3

> <PUBCHEM_OPENEYE_CAN_SMILES>
CC1=CC(=NO1)NC(=O)NC2=C(C=C(C=C2)OC3=C4C=C(C(=CC4=NC=C3)OC)OC)Cl.O.Cl

> <PUBCHEM_OPENEYE_ISO_SMILES>
CC1=CC(=NO1)NC(=O)NC2=C(C=C(C=C2)OC3=C4C=C(C(=CC4=NC=C3)OC)OC)Cl.O.Cl

> <PUBCHEM_CACTVS_TPSA>
109

> <PUBCHEM_MONOISOTOPIC_WEIGHT>
508.0916398

> <PUBCHEM_TOTAL_CHARGE>
0

> <PUBCHEM_HEAVY_ATOM_COUNT>
34

> <PUBCHEM_ATOM_DEF_STEREO_COUNT>
0

> <PUBCHEM_ATOM_UDEF_STEREO_COUNT>
0

> <PUBCHEM_BOND_DEF_STEREO_COUNT>
0

> <PUBCHEM_BOND_UDEF_STEREO_COUNT>
0

> <PUBCHEM_ISOTOPIC_ATOM_COUNT>
0

> <PUBCHEM_COMPONENT_COUNT>
3

> <PUBCHEM_CACTVS_TAUTO_COUNT>
-1

> <PUBCHEM_COORDINATE_TYPE>
1
5
255

> <PUBCHEM_BONDANNOTATIONS>
12  31  8
13  14  8
13  15  8
13  16  8
14  18  8
15  20  8
16  17  8
17  19  8
18  19  8
20  22  8
21  24  8
21  25  8
23  26  8
23  27  8
24  26  8
25  27  8
31  32  8
32  33  8
6  12  8
6  33  8
9  14  8
9  22  8

$$$$
25102846
  -OEChem-11282412102D

 76 79  0     1  0  0  0  0  0999 V2000
   16.6047   13.7141    0.0000 F   0  0  0  0  0  0  0  0  0  0  0  0
   14.0704    8.1844    0.0000 O   0  0  0  0  0  0  0  0  0  0  0  0
   14.9190    9.6943    0.0000 O   0  0  0  0  0  0  0  0  0  0  0  0
   11.5130    4.6546    0.0000 O   0  0  0  0  0  0  0  0  0  0  0  0
    8.0325    3.6200    0.0000 O   0  0  0  0  0  0  0  0  0  0  0  0
    8.0325    1.6200    0.0000 O   0  0  0  0  0  0  0  0  0  0  0  0
    3.1350    5.7620    0.0000 O   0  0  0  0  0  0  0  0  0  0  0  0
    4.8671    6.7620    0.0000 O   0  0  0  0  0  0  0  0  0  0  0  0
    0.5369    7.2620    0.0000 O   0  0  0  0  0  0  0  0  0  0  0  0
    4.0010    8.2620    0.0000 O   0  0  0  0  0  0  0  0  0  0  0  0
    1.4030    5.7620    0.0000 O   0  0  0  0  0  0  0  0  0  0  0  0
   14.9537    6.6945    0.0000 N   0  0  0  0  0  0  0  0  0  0  0  0
   16.6509    9.7143    0.0000 N   0  0  0  0  0  0  0  0  0  0  0  0
   11.5245    1.5853    0.0000 N   0  0  0  0  0  0  0  0  0  0  0  0
   15.8023    8.2044    0.0000 C   0  0  0  0  0  0  0  0  0  0  0  0
   16.3123    7.3442    0.0000 C   0  0  0  0  0  0  0  0  0  0  0  0
   16.8022    8.2160    0.0000 C   0  0  0  0  0  0  0  0  0  0  0  0
   14.9421    7.6944    0.0000 C   0  0  0  0  0  0  0  0  0  0  0  0
   15.7908    9.2044    0.0000 C   0  0  0  0  0  0  0  0  0  0  0  0
   14.0935    6.1845    0.0000 C   0  0  0  0  0  0  0  0  0  0  0  0
   16.6394   10.7143    0.0000 C   0  0  0  0  0  0  0  0  0  0  0  0
   14.1051    5.1846    0.0000 C   0  0  0  0  0  0  0  0  0  0  0  0
   13.2218    6.6745    0.0000 C   0  0  0  0  0  0  0  0  0  0  0  0
   15.7676   11.2042    0.0000 C   0  0  0  0  0  0  0  0  0  0  0  0
   17.4996   11.2243    0.0000 C   0  0  0  0  0  0  0  0  0  0  0  0
   13.2449    4.6746    0.0000 C   0  0  0  0  0  0  0  0  0  0  0  0
   12.3616    6.1645    0.0000 C   0  0  0  0  0  0  0  0  0  0  0  0
   15.7561   12.2042    0.0000 C   0  0  0  0  0  0  0  0  0  0  0  0
   17.4880   12.2242    0.0000 C   0  0  0  0  0  0  0  0  0  0  0  0
   12.3731    5.1646    0.0000 C   0  0  0  0  0  0  0  0  0  0  0  0
   16.6162   12.7141    0.0000 C   0  0  0  0  0  0  0  0  0  0  0  0
   11.5245    3.6547    0.0000 C   0  0  0  0  0  0  0  0  0  0  0  0
   10.6306    3.1200    0.0000 C   0  0  0  0  0  0  0  0  0  0  0  0
   12.4306    3.1408    0.0000 C   0  0  0  0  0  0  0  0  0  0  0  0
   10.6306    2.1200    0.0000 C   0  0  0  0  0  0  0  0  0  0  0  0
    9.7646    3.6200    0.0000 C   0  0  0  0  0  0  0  0  0  0  0  0
    9.7646    1.6200    0.0000 C   0  0  0  0  0  0  0  0  0  0  0  0
   12.4306    2.0992    0.0000 C   0  0  0  0  0  0  0  0  0  0  0  0
    8.8985    3.1200    0.0000 C   0  0  0  0  0  0  0  0  0  0  0  0
    8.8985    2.1200    0.0000 C   0  0  0  0  0  0  0  0  0  0  0  0
    8.0325    4.6200    0.0000 C   0  0  0  0  0  0  0  0  0  0  0  0
    8.0325    0.6200    0.0000 C   0  0  0  0  0  0  0  0  0  0  0  0
    3.1350    6.7620    0.0000 C   0  0  1  0  0  0  0  0  0  0  0  0
    2.2690    7.2620    0.0000 C   0  0  0  0  0  0  0  0  0  0  0  0
    4.0010    7.2620    0.0000 C   0  0  0  0  0  0  0  0  0  0  0  0
    1.4030    6.7620    0.0000 C   0  0  0  0  0  0  0  0  0  0  0  0
   15.8420    6.9402    0.0000 H   0  0  0  0  0  0  0  0  0  0  0  0
   16.7918    6.9512    0.0000 H   0  0  0  0  0  0  0  0  0  0  0  0
   17.3873    8.0107    0.0000 H   0  0  0  0  0  0  0  0  0  0  0  0
   16.9028    8.8278    0.0000 H   0  0  0  0  0  0  0  0  0  0  0  0
   15.4942    6.3908    0.0000 H   0  0  0  0  0  0  0  0  0  0  0  0
   17.1914    9.4106    0.0000 H   0  0  0  0  0  0  0  0  0  0  0  0
   14.6456    4.8808    0.0000 H   0  0  0  0  0  0  0  0  0  0  0  0
   13.2146    7.2944    0.0000 H   0  0  0  0  0  0  0  0  0  0  0  0
   15.2343   10.8880    0.0000 H   0  0  0  0  0  0  0  0  0  0  0  0
   18.0400   10.9205    0.0000 H   0  0  0  0  0  0  0  0  0  0  0  0
   13.2521    4.0547    0.0000 H   0  0  0  0  0  0  0  0  0  0  0  0
   11.8211    6.4683    0.0000 H   0  0  0  0  0  0  0  0  0  0  0  0
   15.2156   12.5079    0.0000 H   0  0  0  0  0  0  0  0  0  0  0  0
   18.0213   12.5404    0.0000 H   0  0  0  0  0  0  0  0  0  0  0  0
   12.9663    3.4529    0.0000 H   0  0  0  0  0  0  0  0  0  0  0  0
    9.7646    4.2400    0.0000 H   0  0  0  0  0  0  0  0  0  0  0  0
    9.7646    1.0000    0.0000 H   0  0  0  0  0  0  0  0  0  0  0  0
   12.9663    1.7871    0.0000 H   0  0  0  0  0  0  0  0  0  0  0  0
    8.6525    4.6200    0.0000 H   0  0  0  0  0  0  0  0  0  0  0  0
    8.0325    5.2400    0.0000 H   0  0  0  0  0  0  0  0  0  0  0  0
    7.4125    4.6200    0.0000 H   0  0  0  0  0  0  0  0  0  0  0  0
    7.4125    0.6200    0.0000 H   0  0  0  0  0  0  0  0  0  0  0  0
    8.0325    0.0000    0.0000 H   0  0  0  0  0  0  0  0  0  0  0  0
    8.6525    0.6200    0.0000 H   0  0  0  0  0  0  0  0  0  0  0  0
    2.5981    6.4520    0.0000 H   0  0  0  0  0  0  0  0  0  0  0  0
    2.6675    7.7370    0.0000 H   0  0  0  0  0  0  0  0  0  0  0  0
    1.8705    7.7370    0.0000 H   0  0  0  0  0  0  0  0  0  0  0  0
    2.5981    5.4520    0.0000 H   0  0  0  0  0  0  0  0  0  0  0  0
    5.4040    7.0720    0.0000 H   0  0  0  0  0  0  0  0  0  0  0  0
    0.0000    6.9520    0.0000 H   0  0  0  0  0  0  0  0  0  0  0  0
  1 31  1  0  0  0  0
  2 18  2  0  0  0  0
  3 19  2  0  0  0  0
  4 30  1  0  0  0  0
  4 32  1  0  0  0  0
  5 39  1  0  0  0  0
  5 41  1  0  0  0  0
  6 40  1  0  0  0  0
  6 42  1  0  0  0  0
 43  7  1  1  0  0  0
  7 74  1  0  0  0  0
  8 45  1  0  0  0  0
  8 75  1  0  0  0  0
  9 46  1  0  0  0  0
  9 76  1  0  0  0  0
 10 45  2  0  0  0  0
 11 46  2  0  0  0  0
 12 18  1  0  0  0  0
 12 20  1  0  0  0  0
 12 51  1  0  0  0  0
 13 19  1  0  0  0  0
 13 21  1  0  0  0  0
 13 52  1  0  0  0  0
 14 35  2  0  0  0  0
 14 38  1  0  0  0  0
 15 16  1  0  0  0  0
 15 17  1  0  0  0  0
 15 18  1  0  0  0  0
 15 19  1  0  0  0  0
 16 17  1  0  0  0  0
 16 47  1  0  0  0  0
 16 48  1  0  0  0  0
 17 49  1  0  0  0  0
 17 50  1  0  0  0  0
 20 22  2  0  0  0  0
 20 23  1  0  0  0  0
 21 24  2  0  0  0  0
 21 25  1  0  0  0  0
 22 26  1  0  0  0  0
 22 53  1  0  0  0  0
 23 27  2  0  0  0  0
 23 54  1  0  0  0  0
 24 28  1  0  0  0  0
 24 55  1  0  0  0  0
 25 29  2  0  0  0  0
 25 56  1  0  0  0  0
 26 30  2  0  0  0  0
 26 57  1  0  0  0  0
 27 30  1  0  0  0  0
 27 58  1  0  0  0  0
 28 31  2  0  0  0  0
 28 59  1  0  0  0  0
 29 31  1  0  0  0  0
 29 60  1  0  0  0  0
 32 33  2  0  0  0  0
 32 34  1  0  0  0  0
 33 35  1  0  0  0  0
 33 36  1  0  0  0  0
 34 38  2  0  0  0  0
 34 61  1  0  0  0  0
 35 37  1  0  0  0  0
 36 39  2  0  0  0  0
 36 62  1  0  0  0  0
 37 40  2  0  0  0  0
 37 63  1  0  0  0  0
 38 64  1  0  0  0  0
 39 40  1  0  0  0  0
 41 65  1  0  0  0  0
 41 66  1  0  0  0  0
 41 67  1  0  0  0  0
 42 68  1  0  0  0  0
 42 69  1  0  0  0  0
 42 70  1  0  0  0  0
 43 44  1  0  0  0  0
 43 45  1  0  0  0  0
 43 71  1  0  0  0  0
 44 46  1  0  0  0  0
 44 72  1  0  0  0  0
 44 73  1  0  0  0  0
M  END
> <PUBCHEM_COMPOUND_CID>
25102846

> <PUBCHEM_COMPOUND_CANONICALIZED>
1

> <PUBCHEM_CACTVS_COMPLEXITY>
924

> <PUBCHEM_CACTVS_HBOND_ACCEPTOR>
12

> <PUBCHEM_CACTVS_HBOND_DONOR>
5

> <PUBCHEM_CACTVS_ROTATABLE_BOND>
11

> <PUBCHEM_CACTVS_SUBSKEYS>
AAADceB/PQAAAAAAAAAAAAAAGAAAAAAAAAA8YMEAAAAAAACx9AAAHwAQCAAADhzhng4+zvLIFgCoAzX3XAKCiCAxIiAI2CF+7JgNNv7M8ZuGeCrn9BnL6Afz8L8OIEABAgACQABAgAIEAASAAAAAAAAAAA==

> <PUBCHEM_IUPAC_OPENEYE_NAME>
N1-[4-[(6,7-dimethoxy-4-quinolyl)oxy]phenyl]-N1'-(4-fluorophenyl)cyclopropane-1,1-dicarboxamide;(2S)-2-hydroxybutanedioic acid

> <PUBCHEM_IUPAC_CAS_NAME>
N1-[4-[(6,7-dimethoxy-4-quinolinyl)oxy]phenyl]-N1'-(4-fluorophenyl)cyclopropane-1,1-dicarboxamide;(2S)-2-hydroxybutanedioic acid

> <PUBCHEM_IUPAC_NAME_MARKUP>
1-<I>N</I>-[4-(6,7-dimethoxyquinolin-4-yl)oxyphenyl]-1-<I>N</I>&apos;-(4-fluorophenyl)cyclopropane-1,1-dicarboxamide;(2<I>S</I>)-2-hydroxybutanedioic acid

> <PUBCHEM_IUPAC_NAME>
1-N-[4-(6,7-dimethoxyquinolin-4-yl)oxyphenyl]-1-N'-(4-fluorophenyl)cyclopropane-1,1-dicarboxamide;(2S)-2-hydroxybutanedioic acid

> <PUBCHEM_IUPAC_SYSTEMATIC_NAME>
N1-[4-(6,7-dimethoxyquinolin-4-yl)oxyphenyl]-N1'-(4-fluorophenyl)cyclopropane-1,1-dicarboxamide;(2S)-2-oxidanylbutanedioic acid

> <PUBCHEM_IUPAC_TRADITIONAL_NAME>
N-[4-[(6,7-dimethoxy-4-quinolyl)oxy]phenyl]-N'-(4-fluorophenyl)cyclopropane-1,1-dicarboxamide;(2S)-2-hydroxysuccinic acid

> <PUBCHEM_IUPAC_INCHI>
InChI=1S/C28H24FN3O5.C4H6O5/c1-35-24-15-21-22(16-25(24)36-2)30-14-11-23(21)37-20-9-7-19(8-10-20)32-27(34)28(12-13-28)26(33)31-18-5-3-17(29)4-6-18;5-2(4(8)9)1-3(6)7/h3-11,14-16H,12-13H2,1-2H3,(H,31,33)(H,32,34);2,5H,1H2,(H,6,7)(H,8,9)/t;2-/m.0/s1

> <PUBCHEM_IUPAC_INCHIKEY>
HFCFMRYTXDINDK-WNQIDUERSA-N

> <PUBCHEM_EXACT_MASS>
635.19152232

> <PUBCHEM_MOLECULAR_FORMULA>
C32H30FN3O10

> <PUBCHEM_MOLECULAR_WEIGHT>
635.6

> <PUBCHEM_OPENEYE_CAN_SMILES>
COC1=CC2=C(C=CN=C2C=C1OC)OC3=CC=C(C=C3)NC(=O)C4(CC4)C(=O)NC5=CC=C(C=C5)F.C(C(C(=O)O)O)C(=O)O

> <PUBCHEM_OPENEYE_ISO_SMILES>
COC1=CC2=C(C=CN=C2C=C1OC)OC3=CC=C(C=C3)NC(=O)C4(CC4)C(=O)NC5=CC=C(C=C5)F.C([C@@H](C(=O)O)O)C(=O)O

> <PUBCHEM_CACTVS_TPSA>
194

> <PUBCHEM_MONOISOTOPIC_WEIGHT>
635.19152232

> <PUBCHEM_TOTAL_CHARGE>
0

> <PUBCHEM_HEAVY_ATOM_COUNT>
46

> <PUBCHEM_ATOM_DEF_STEREO_COUNT>
1

> <PUBCHEM_ATOM_UDEF_STEREO_COUNT>
0

> <PUBCHEM_BOND_DEF_STEREO_COUNT>
0

> <PUBCHEM_BOND_UDEF_STEREO_COUNT>
0

> <PUBCHEM_ISOTOPIC_ATOM_COUNT>
0

> <PUBCHEM_COMPONENT_COUNT>
2

> <PUBCHEM_CACTVS_TAUTO_COUNT>
-1

> <PUBCHEM_COORDINATE_TYPE>
1
5
255

> <PUBCHEM_BONDANNOTATIONS>
14  35  8
14  38  8
20  22  8
20  23  8
21  24  8
21  25  8
22  26  8
23  27  8
24  28  8
25  29  8
26  30  8
27  30  8
28  31  8
29  31  8
32  33  8
32  34  8
33  35  8
33  36  8
34  38  8
35  37  8
36  39  8
37  40  8
39  40  8
43  7  5

$$$$
56947515
  -OEChem-11282412102D

 59 63  0     0  0  0  0  0  0999 V2000
    8.4950    3.8770    0.0000 F   0  0  0  0  0  0  0  0  0  0  0  0
    9.8624    3.5162    0.0000 F   0  0  0  0  0  0  0  0  0  0  0  0
    9.5016    2.1488    0.0000 F   0  0  0  0  0  0  0  0  0  0  0  0
    4.5836   -1.7583    0.0000 N   0  0  0  0  0  0  0  0  0  0  0  0
    4.5836   -3.3678    0.0000 N   0  0  0  0  0  0  0  0  0  0  0  0
    7.2619   -3.0630    0.0000 N   0  0  0  0  0  0  0  0  0  0  0  0
    4.6301    0.8871    0.0000 N   0  0  0  0  0  0  0  0  0  0  0  0
    3.0000   -2.5630    0.0000 N   0  0  0  0  0  0  0  0  0  0  0  0
    6.4022    2.5029    0.0000 N   0  0  0  0  0  0  0  0  0  0  0  0
    7.2624    4.0062    0.0000 N   0  0  0  0  0  0  0  0  0  0  0  0
    2.7196    3.9448    0.0000 N   0  0  0  0  0  0  0  0  0  0  0  0
    2.0000   -4.2951    0.0000 N   0  0  0  0  0  0  0  0  0  0  0  0
    5.5298   -2.0630    0.0000 C   0  0  0  0  0  0  0  0  0  0  0  0
    5.5298   -3.0630    0.0000 C   0  0  0  0  0  0  0  0  0  0  0  0
    6.3958   -1.5630    0.0000 C   0  0  0  0  0  0  0  0  0  0  0  0
    4.0000   -2.5630    0.0000 C   0  0  0  0  0  0  0  0  0  0  0  0
    4.2730   -0.8078    0.0000 C   0  0  0  0  0  0  0  0  0  0  0  0
    7.2619   -2.0630    0.0000 C   0  0  0  0  0  0  0  0  0  0  0  0
    6.3798   -0.5215    0.0000 C   0  0  0  0  0  0  0  0  0  0  0  0
    6.3958   -3.5630    0.0000 C   0  0  0  0  0  0  0  0  0  0  0  0
    7.2778    0.0062    0.0000 C   0  0  0  0  0  0  0  0  0  0  0  0
    3.3410    2.0438    0.0000 C   0  0  0  0  0  0  0  0  0  0  0  0
    4.2730   -4.3183    0.0000 C   0  0  0  0  0  0  0  0  0  0  0  0
    3.6516    1.0933    0.0000 C   0  0  0  0  0  0  0  0  0  0  0  0
    3.2944   -0.6016    0.0000 C   0  0  0  0  0  0  0  0  0  0  0  0
    8.1719   -1.5562    0.0000 C   0  0  0  0  0  0  0  0  0  0  0  0
    4.9408   -0.0635    0.0000 C   0  0  0  0  0  0  0  0  0  0  0  0
    8.1799   -0.5146    0.0000 C   0  0  0  0  0  0  0  0  0  0  0  0
    2.9838    0.3490    0.0000 C   0  0  0  0  0  0  0  0  0  0  0  0
    7.2740    1.0062    0.0000 C   0  0  0  0  0  0  0  0  0  0  0  0
    2.3904    1.7331    0.0000 C   0  0  0  0  0  0  0  0  0  0  0  0
    4.2915    2.3544    0.0000 C   0  0  0  0  0  0  0  0  0  0  0  0
    8.1381    1.5096    0.0000 C   0  0  0  0  0  0  0  0  0  0  0  0
    6.4060    1.5029    0.0000 C   0  0  0  0  0  0  0  0  0  0  0  0
    3.0303    2.9943    0.0000 C   0  0  0  0  0  0  0  0  0  0  0  0
    8.1342    2.5096    0.0000 C   0  0  0  0  0  0  0  0  0  0  0  0
    7.2663    3.0062    0.0000 C   0  0  0  0  0  0  0  0  0  0  0  0
    2.5000   -3.4290    0.0000 C   0  0  0  0  0  0  0  0  0  0  0  0
    8.9983    3.0129    0.0000 C   0  0  0  0  0  0  0  0  0  0  0  0
    5.8393   -0.2177    0.0000 H   0  0  0  0  0  0  0  0  0  0  0  0
    6.3958   -4.1830    0.0000 H   0  0  0  0  0  0  0  0  0  0  0  0
    3.6836   -4.1257    0.0000 H   0  0  0  0  0  0  0  0  0  0  0  0
    4.0803   -4.9076    0.0000 H   0  0  0  0  0  0  0  0  0  0  0  0
    4.8623   -4.5109    0.0000 H   0  0  0  0  0  0  0  0  0  0  0  0
    2.8804   -1.0630    0.0000 H   0  0  0  0  0  0  0  0  0  0  0  0
    8.7052   -1.8724    0.0000 H   0  0  0  0  0  0  0  0  0  0  0  0
    5.5475   -0.1913    0.0000 H   0  0  0  0  0  0  0  0  0  0  0  0
    8.7180   -0.2066    0.0000 H   0  0  0  0  0  0  0  0  0  0  0  0
    2.3771    0.4768    0.0000 H   0  0  0  0  0  0  0  0  0  0  0  0
    2.1978    2.3224    0.0000 H   0  0  0  0  0  0  0  0  0  0  0  0
    1.8011    1.5405    0.0000 H   0  0  0  0  0  0  0  0  0  0  0  0
    2.5830    1.1438    0.0000 H   0  0  0  0  0  0  0  0  0  0  0  0
    4.4841    1.7651    0.0000 H   0  0  0  0  0  0  0  0  0  0  0  0
    4.8808    2.5471    0.0000 H   0  0  0  0  0  0  0  0  0  0  0  0
    4.0989    2.9438    0.0000 H   0  0  0  0  0  0  0  0  0  0  0  0
    8.6762    1.2016    0.0000 H   0  0  0  0  0  0  0  0  0  0  0  0
    5.8703    1.1908    0.0000 H   0  0  0  0  0  0  0  0  0  0  0  0
    6.7243    4.3141    0.0000 H   0  0  0  0  0  0  0  0  0  0  0  0
    7.7982    4.3183    0.0000 H   0  0  0  0  0  0  0  0  0  0  0  0
  1 39  1  0  0  0  0
  2 39  1  0  0  0  0
  3 39  1  0  0  0  0
  4 13  1  0  0  0  0
  4 16  1  0  0  0  0
  4 17  1  0  0  0  0
  5 14  1  0  0  0  0
  5 16  1  0  0  0  0
  5 23  1  0  0  0  0
  6 18  2  0  0  0  0
  6 20  1  0  0  0  0
  7 24  2  0  0  0  0
  7 27  1  0  0  0  0
  8 16  2  0  0  0  0
  8 38  1  0  0  0  0
  9 34  2  0  0  0  0
  9 37  1  0  0  0  0
 10 37  1  0  0  0  0
 10 58  1  0  0  0  0
 10 59  1  0  0  0  0
 11 35  3  0  0  0  0
 12 38  3  0  0  0  0
 13 14  1  0  0  0  0
 13 15  2  0  0  0  0
 14 20  2  0  0  0  0
 15 18  1  0  0  0  0
 15 19  1  0  0  0  0
 17 25  1  0  0  0  0
 17 27  2  0  0  0  0
 18 26  1  0  0  0  0
 19 21  2  0  0  0  0
 19 40  1  0  0  0  0
 20 41  1  0  0  0  0
 21 28  1  0  0  0  0
 21 30  1  0  0  0  0
 22 24  1  0  0  0  0
 22 31  1  0  0  0  0
 22 32  1  0  0  0  0
 22 35  1  0  0  0  0
 23 42  1  0  0  0  0
 23 43  1  0  0  0  0
 23 44  1  0  0  0  0
 24 29  1  0  0  0  0
 25 29  2  0  0  0  0
 25 45  1  0  0  0  0
 26 28  2  0  0  0  0
 26 46  1  0  0  0  0
 27 47  1  0  0  0  0
 28 48  1  0  0  0  0
 29 49  1  0  0  0  0
 30 33  2  0  0  0  0
 30 34  1  0  0  0  0
 31 50  1  0  0  0  0
 31 51  1  0  0  0  0
 31 52  1  0  0  0  0
 32 53  1  0  0  0  0
 32 54  1  0  0  0  0
 32 55  1  0  0  0  0
 33 36  1  0  0  0  0
 33 56  1  0  0  0  0
 34 57  1  0  0  0  0
 36 37  2  0  0  0  0
 36 39  1  0  0  0  0
M  END
> <PUBCHEM_COMPOUND_CID>
56947515

> <PUBCHEM_COMPOUND_CANONICALIZED>
1

> <PUBCHEM_CACTVS_COMPLEXITY>
1040

> <PUBCHEM_CACTVS_HBOND_ACCEPTOR>
10

> <PUBCHEM_CACTVS_HBOND_DONOR>
1

> <PUBCHEM_CACTVS_ROTATABLE_BOND>
3

> <PUBCHEM_CACTVS_SUBSKEYS>
AAADceB7wYAAAAAAAAAAAAAAAAAAAWAAAAA8WLEAAAAAAFix/gAAHQAQAAAADgjBHhQ/8PNIEACwBzZnZACCgCkxEiAJ2CA4dJiI4OLA2dGUJAhogALIyC8QgMAPiAACAAACAAAQAAQAAAQAAAAAAAAAAA==

> <PUBCHEM_IUPAC_OPENEYE_NAME>
[8-[6-amino-5-(trifluoromethyl)-3-pyridyl]-1-[6-(1-cyano-1-methyl-ethyl)-3-pyridyl]-3-methyl-imidazo[4,5-c]quinolin-2-ylidene]cyanamide

> <PUBCHEM_IUPAC_CAS_NAME>
[8-[6-amino-5-(trifluoromethyl)-3-pyridinyl]-1-[6-(2-cyanopropan-2-yl)-3-pyridinyl]-3-methyl-2-imidazo[4,5-c]quinolinylidene]cyanamide

> <PUBCHEM_IUPAC_NAME_MARKUP>
[8-[6-amino-5-(trifluoromethyl)pyridin-3-yl]-1-[6-(2-cyanopropan-2-yl)pyridin-3-yl]-3-methylimidazo[4,5-c]quinolin-2-ylidene]cyanamide

> <PUBCHEM_IUPAC_NAME>
[8-[6-amino-5-(trifluoromethyl)pyridin-3-yl]-1-[6-(2-cyanopropan-2-yl)pyridin-3-yl]-3-methylimidazo[4,5-c]quinolin-2-ylidene]cyanamide

> <PUBCHEM_IUPAC_SYSTEMATIC_NAME>
[8-[6-azanyl-5-(trifluoromethyl)pyridin-3-yl]-1-[6-(2-cyanopropan-2-yl)pyridin-3-yl]-3-methyl-imidazo[4,5-c]quinolin-2-ylidene]cyanamide

> <PUBCHEM_IUPAC_TRADITIONAL_NAME>
[8-[6-amino-5-(trifluoromethyl)-3-pyridyl]-1-[6-(1-cyano-1-methyl-ethyl)-3-pyridyl]-3-methyl-imidazo[4,5-c]quinolin-2-ylidene]cyanamide

> <PUBCHEM_IUPAC_INCHI>
InChI=1S/C27H20F3N9/c1-26(2,13-31)22-7-5-17(11-35-22)39-23-18-8-15(16-9-19(27(28,29)30)24(33)36-10-16)4-6-20(18)34-12-21(23)38(3)25(39)37-14-32/h4-12H,1-3H3,(H2,33,36)

> <PUBCHEM_IUPAC_INCHIKEY>
VJLRLTSXTLICIR-UHFFFAOYSA-N

> <PUBCHEM_XLOGP3_AA>
3.7

> <PUBCHEM_EXACT_MASS>
527.17937616

> <PUBCHEM_MOLECULAR_FORMULA>
C27H20F3N9

> <PUBCHEM_MOLECULAR_WEIGHT>
527.5

> <PUBCHEM_OPENEYE_CAN_SMILES>
CC(C)(C#N)C1=NC=C(C=C1)N2C3=C4C=C(C=CC4=NC=C3N(C2=NC#N)C)C5=CC(=C(N=C5)N)C(F)(F)F

> <PUBCHEM_OPENEYE_ISO_SMILES>
CC(C)(C#N)C1=NC=C(C=C1)N2C3=C4C=C(C=CC4=NC=C3N(C2=NC#N)C)C5=CC(=C(N=C5)N)C(F)(F)F

> <PUBCHEM_CACTVS_TPSA>
131

> <PUBCHEM_MONOISOTOPIC_WEIGHT>
527.17937616

> <PUBCHEM_TOTAL_CHARGE>
0

> <PUBCHEM_HEAVY_ATOM_COUNT>
39

> <PUBCHEM_ATOM_DEF_STEREO_COUNT>
0

> <PUBCHEM_ATOM_UDEF_STEREO_COUNT>
0

> <PUBCHEM_BOND_DEF_STEREO_COUNT>
0

> <PUBCHEM_BOND_UDEF_STEREO_COUNT>
0

> <PUBCHEM_ISOTOPIC_ATOM_COUNT>
0

> <PUBCHEM_COMPONENT_COUNT>
1

> <PUBCHEM_CACTVS_TAUTO_COUNT>
-1

> <PUBCHEM_COORDINATE_TYPE>
1
5
255

> <PUBCHEM_BONDANNOTATIONS>
13  14  8
13  15  8
14  20  8
15  18  8
15  19  8
17  25  8
17  27  8
18  26  8
19  21  8
21  28  8
24  29  8
25  29  8
26  28  8
30  33  8
30  34  8
33  36  8
36  37  8
4  13  8
4  16  8
5  14  8
5  16  8
6  18  8
6  20  8
7  24  8
7  27  8
9  34  8
9  37  8

$$$$
3081361
  -OEChem-11282412102D

 54 57  0     0  0  0  0  0  0999 V2000
   12.3853   -4.0373    0.0000 Br  0  0  0  0  0  0  0  0  0  0  0  0
    8.9214   -3.9972    0.0000 F   0  0  0  0  0  0  0  0  0  0  0  0
    5.4641    1.0373    0.0000 O   0  0  0  0  0  0  0  0  0  0  0  0
    5.4641   -0.9627    0.0000 O   0  0  0  0  0  0  0  0  0  0  0  0
    2.8660    3.5373    0.0000 N   0  0  0  0  0  0  0  0  0  0  0  0
    8.9561    1.0719    0.0000 N   0  0  0  0  0  0  0  0  0  0  0  0
    8.9446   -1.9973    0.0000 N   0  0  0  0  0  0  0  0  0  0  0  0
    9.8622   -0.4836    0.0000 N   0  0  0  0  0  0  0  0  0  0  0  0
    4.5981    2.5373    0.0000 C   0  0  0  0  0  0  0  0  0  0  0  0
    4.5981    3.5373    0.0000 C   0  0  0  0  0  0  0  0  0  0  0  0
    3.7320    2.0373    0.0000 C   0  0  0  0  0  0  0  0  0  0  0  0
    3.7320    4.0373    0.0000 C   0  0  0  0  0  0  0  0  0  0  0  0
    2.8660    2.5373    0.0000 C   0  0  0  0  0  0  0  0  0  0  0  0
    5.4641    2.0373    0.0000 C   0  0  0  0  0  0  0  0  0  0  0  0
    2.0000    4.0373    0.0000 C   0  0  0  0  0  0  0  0  0  0  0  0
    6.3301    0.5373    0.0000 C   0  0  0  0  0  0  0  0  0  0  0  0
    6.3301   -0.4627    0.0000 C   0  0  0  0  0  0  0  0  0  0  0  0
    7.1962    1.0373    0.0000 C   0  0  0  0  0  0  0  0  0  0  0  0
    8.0622    0.5373    0.0000 C   0  0  0  0  0  0  0  0  0  0  0  0
    8.0622   -0.4627    0.0000 C   0  0  0  0  0  0  0  0  0  0  0  0
    7.1962   -0.9627    0.0000 C   0  0  0  0  0  0  0  0  0  0  0  0
    8.9561   -0.9974    0.0000 C   0  0  0  0  0  0  0  0  0  0  0  0
    9.8622    0.5581    0.0000 C   0  0  0  0  0  0  0  0  0  0  0  0
    5.4641   -1.9627    0.0000 C   0  0  0  0  0  0  0  0  0  0  0  0
    9.8047   -2.5073    0.0000 C   0  0  0  0  0  0  0  0  0  0  0  0
    9.7932   -3.5072    0.0000 C   0  0  0  0  0  0  0  0  0  0  0  0
   10.6765   -2.0174    0.0000 C   0  0  0  0  0  0  0  0  0  0  0  0
   10.6534   -4.0172    0.0000 C   0  0  0  0  0  0  0  0  0  0  0  0
   11.5367   -2.5273    0.0000 C   0  0  0  0  0  0  0  0  0  0  0  0
   11.5251   -3.5273    0.0000 C   0  0  0  0  0  0  0  0  0  0  0  0
    4.5981    1.9173    0.0000 H   0  0  0  0  0  0  0  0  0  0  0  0
    5.2087    3.4296    0.0000 H   0  0  0  0  0  0  0  0  0  0  0  0
    4.8101    4.1199    0.0000 H   0  0  0  0  0  0  0  0  0  0  0  0
    3.3335    1.5623    0.0000 H   0  0  0  0  0  0  0  0  0  0  0  0
    4.1306    1.5623    0.0000 H   0  0  0  0  0  0  0  0  0  0  0  0
    4.1306    4.5122    0.0000 H   0  0  0  0  0  0  0  0  0  0  0  0
    3.3335    4.5122    0.0000 H   0  0  0  0  0  0  0  0  0  0  0  0
    2.2554    2.6449    0.0000 H   0  0  0  0  0  0  0  0  0  0  0  0
    2.6540    1.9546    0.0000 H   0  0  0  0  0  0  0  0  0  0  0  0
    6.0747    1.9296    0.0000 H   0  0  0  0  0  0  0  0  0  0  0  0
    5.6762    2.6199    0.0000 H   0  0  0  0  0  0  0  0  0  0  0  0
    2.3100    4.5742    0.0000 H   0  0  0  0  0  0  0  0  0  0  0  0
    1.4631    4.3473    0.0000 H   0  0  0  0  0  0  0  0  0  0  0  0
    1.6900    3.5003    0.0000 H   0  0  0  0  0  0  0  0  0  0  0  0
    7.1962    1.6573    0.0000 H   0  0  0  0  0  0  0  0  0  0  0  0
    7.1962   -1.5827    0.0000 H   0  0  0  0  0  0  0  0  0  0  0  0
    8.4041   -2.3011    0.0000 H   0  0  0  0  0  0  0  0  0  0  0  0
   10.3979    0.8701    0.0000 H   0  0  0  0  0  0  0  0  0  0  0  0
    4.8441   -1.9627    0.0000 H   0  0  0  0  0  0  0  0  0  0  0  0
    5.4641   -2.5827    0.0000 H   0  0  0  0  0  0  0  0  0  0  0  0
    6.0841   -1.9627    0.0000 H   0  0  0  0  0  0  0  0  0  0  0  0
   10.6837   -1.3974    0.0000 H   0  0  0  0  0  0  0  0  0  0  0  0
   10.6462   -4.6372    0.0000 H   0  0  0  0  0  0  0  0  0  0  0  0
   12.0772   -2.2236    0.0000 H   0  0  0  0  0  0  0  0  0  0  0  0
  1 30  1  0  0  0  0
  2 26  1  0  0  0  0
  3 14  1  0  0  0  0
  3 16  1  0  0  0  0
  4 17  1  0  0  0  0
  4 24  1  0  0  0  0
  5 12  1  0  0  0  0
  5 13  1  0  0  0  0
  5 15  1  0  0  0  0
  6 19  1  0  0  0  0
  6 23  2  0  0  0  0
  7 22  1  0  0  0  0
  7 25  1  0  0  0  0
  7 47  1  0  0  0  0
  8 22  2  0  0  0  0
  8 23  1  0  0  0  0
  9 10  1  0  0  0  0
  9 11  1  0  0  0  0
  9 14  1  0  0  0  0
  9 31  1  0  0  0  0
 10 12  1  0  0  0  0
 10 32  1  0  0  0  0
 10 33  1  0  0  0  0
 11 13  1  0  0  0  0
 11 34  1  0  0  0  0
 11 35  1  0  0  0  0
 12 36  1  0  0  0  0
 12 37  1  0  0  0  0
 13 38  1  0  0  0  0
 13 39  1  0  0  0  0
 14 40  1  0  0  0  0
 14 41  1  0  0  0  0
 15 42  1  0  0  0  0
 15 43  1  0  0  0  0
 15 44  1  0  0  0  0
 16 17  2  0  0  0  0
 16 18  1  0  0  0  0
 17 21  1  0  0  0  0
 18 19  2  0  0  0  0
 18 45  1  0  0  0  0
 19 20  1  0  0  0  0
 20 21  2  0  0  0  0
 20 22  1  0  0  0  0
 21 46  1  0  0  0  0
 23 48  1  0  0  0  0
 24 49  1  0  0  0  0
 24 50  1  0  0  0  0
 24 51  1  0  0  0  0
 25 26  2  0  0  0  0
 25 27  1  0  0  0  0
 26 28  1  0  0  0  0
 27 29  2  0  0  0  0
 27 52  1  0  0  0  0
 28 30  2  0  0  0  0
 28 53  1  0  0  0  0
 29 30  1  0  0  0  0
 29 54  1  0  0  0  0
M  END
> <PUBCHEM_COMPOUND_CID>
3081361

> <PUBCHEM_COMPOUND_CANONICALIZED>
1

> <PUBCHEM_CACTVS_COMPLEXITY>
539

> <PUBCHEM_CACTVS_HBOND_ACCEPTOR>
7

> <PUBCHEM_CACTVS_HBOND_DONOR>
1

> <PUBCHEM_CACTVS_ROTATABLE_BOND>
6

> <PUBCHEM_CACTVS_SUBSKEYS>
AAADceB7sQAAEAAAAAAAAAAAAAAAAAAAAAA8eIEAAAAAAACx9AAAHwBQAAABrQzhng439vfIFACgAyZjZACCiCkxIqQJ2CA+7LiNLuLE+duGPCru0BvK6jew0BMOIEAhAgACQABAgEIEAASAAAAAAAAAAA==

> <PUBCHEM_IUPAC_OPENEYE_NAME>
N-(4-bromo-2-fluoro-phenyl)-6-methoxy-7-[(1-methyl-4-piperidyl)methoxy]quinazolin-4-amine

> <PUBCHEM_IUPAC_CAS_NAME>
N-(4-bromo-2-fluorophenyl)-6-methoxy-7-[(1-methyl-4-piperidinyl)methoxy]-4-quinazolinamine

> <PUBCHEM_IUPAC_NAME_MARKUP>
<I>N</I>-(4-bromo-2-fluorophenyl)-6-methoxy-7-[(1-methylpiperidin-4-yl)methoxy]quinazolin-4-amine

> <PUBCHEM_IUPAC_NAME>
N-(4-bromo-2-fluorophenyl)-6-methoxy-7-[(1-methylpiperidin-4-yl)methoxy]quinazolin-4-amine

> <PUBCHEM_IUPAC_SYSTEMATIC_NAME>
N-(4-bromanyl-2-fluoranyl-phenyl)-6-methoxy-7-[(1-methylpiperidin-4-yl)methoxy]quinazolin-4-amine

> <PUBCHEM_IUPAC_TRADITIONAL_NAME>
(4-bromo-2-fluoro-phenyl)-[6-methoxy-7-[(1-methyl-4-piperidyl)methoxy]quinazolin-4-yl]amine

> <PUBCHEM_IUPAC_INCHI>
InChI=1S/C22H24BrFN4O2/c1-28-7-5-14(6-8-28)12-30-21-11-19-16(10-20(21)29-2)22(26-13-25-19)27-18-4-3-15(23)9-17(18)24/h3-4,9-11,13-14H,5-8,12H2,1-2H3,(H,25,26,27)

> <PUBCHEM_IUPAC_INCHIKEY>
UHTHHESEBZOYNR-UHFFFAOYSA-N

> <PUBCHEM_XLOGP3_AA>
4.9

> <PUBCHEM_EXACT_MASS>
474.10667

> <PUBCHEM_MOLECULAR_FORMULA>
C22H24BrFN4O2

> <PUBCHEM_MOLECULAR_WEIGHT>
475.4

> <PUBCHEM_OPENEYE_CAN_SMILES>
CN1CCC(CC1)COC2=C(C=C3C(=C2)N=CN=C3NC4=C(C=C(C=C4)Br)F)OC

> <PUBCHEM_OPENEYE_ISO_SMILES>
CN1CCC(CC1)COC2=C(C=C3C(=C2)N=CN=C3NC4=C(C=C(C=C4)Br)F)OC

> <PUBCHEM_CACTVS_TPSA>
59.5

> <PUBCHEM_MONOISOTOPIC_WEIGHT>
474.10667

> <PUBCHEM_TOTAL_CHARGE>
0

> <PUBCHEM_HEAVY_ATOM_COUNT>
30

> <PUBCHEM_ATOM_DEF_STEREO_COUNT>
0

> <PUBCHEM_ATOM_UDEF_STEREO_COUNT>
0

> <PUBCHEM_BOND_DEF_STEREO_COUNT>
0

> <PUBCHEM_BOND_UDEF_STEREO_COUNT>
0

> <PUBCHEM_ISOTOPIC_ATOM_COUNT>
0

> <PUBCHEM_COMPONENT_COUNT>
1

> <PUBCHEM_CACTVS_TAUTO_COUNT>
-1

> <PUBCHEM_COORDINATE_TYPE>
1
5
255

> <PUBCHEM_BONDANNOTATIONS>
16  17  8
16  18  8
17  21  8
18  19  8
19  20  8
20  21  8
20  22  8
25  26  8
25  27  8
26  28  8
27  29  8
28  30  8
29  30  8
6  19  8
6  23  8
8  22  8
8  23  8

$$$$
11525740
  -OEChem-11282412102D

 56 58  0     0  0  0  0  0  0999 V2000
    5.2405    0.0000    0.0000 Cl  0  0  0  0  0  0  0  0  0  0  0  0
    2.2690   10.1183    0.0000 S   0  0  0  0  0  0  0  0  0  0  0  0
    3.2690   10.1183    0.0000 O   0  0  0  0  0  0  0  0  0  0  0  0
    1.2690   10.1183    0.0000 O   0  0  0  0  0  0  0  0  0  0  0  0
    9.8610    5.1183    0.0000 N   0  0  0  0  0  0  0  0  0  0  0  0
    5.7331    4.1183    0.0000 N   0  0  0  0  0  0  0  0  0  0  0  0
    9.2774    4.3135    0.0000 N   0  0  0  0  0  0  0  0  0  0  0  0
    4.0010    7.1183    0.0000 N   0  0  0  0  0  0  0  0  0  0  0  0
    4.8671    5.6183    0.0000 N   0  0  0  0  0  0  0  0  0  0  0  0
    3.1350    5.6183    0.0000 N   0  0  0  0  0  0  0  0  0  0  0  0
    2.2690   11.1183    0.0000 N   0  0  0  0  0  0  0  0  0  0  0  0
    8.3312    5.6183    0.0000 C   0  0  0  0  0  0  0  0  0  0  0  0
    8.3312    4.6183    0.0000 C   0  0  0  0  0  0  0  0  0  0  0  0
    9.2774    5.9230    0.0000 C   0  0  0  0  0  0  0  0  0  0  0  0
    6.5991    4.6183    0.0000 C   0  0  0  0  0  0  0  0  0  0  0  0
    7.4651    4.1183    0.0000 C   0  0  0  0  0  0  0  0  0  0  0  0
    7.4651    6.1183    0.0000 C   0  0  0  0  0  0  0  0  0  0  0  0
    6.5991    5.6183    0.0000 C   0  0  0  0  0  0  0  0  0  0  0  0
    9.5881    6.8735    0.0000 C   0  0  0  0  0  0  0  0  0  0  0  0
    4.8671    4.6183    0.0000 C   0  0  0  0  0  0  0  0  0  0  0  0
    2.2690    9.1183    0.0000 C   0  0  0  0  0  0  0  0  0  0  0  0
   10.8610    5.1183    0.0000 C   0  0  0  0  0  0  0  0  0  0  0  0
    1.4030    8.6183    0.0000 C   0  0  0  0  0  0  0  0  0  0  0  0
    3.1350    7.6183    0.0000 C   0  0  0  0  0  0  0  0  0  0  0  0
    5.7331    3.1183    0.0000 C   0  0  0  0  0  0  0  0  0  0  0  0
    3.1350    8.6183    0.0000 C   0  0  0  0  0  0  0  0  0  0  0  0
    1.4030    7.6183    0.0000 C   0  0  0  0  0  0  0  0  0  0  0  0
    2.2690    7.1183    0.0000 C   0  0  0  0  0  0  0  0  0  0  0  0
    4.0010    6.1183    0.0000 C   0  0  0  0  0  0  0  0  0  0  0  0
    4.0010    4.1183    0.0000 C   0  0  0  0  0  0  0  0  0  0  0  0
    0.5369    9.1183    0.0000 C   0  0  0  0  0  0  0  0  0  0  0  0
    3.1350    4.6183    0.0000 C   0  0  0  0  0  0  0  0  0  0  0  0
    7.4651    3.4983    0.0000 H   0  0  0  0  0  0  0  0  0  0  0  0
    7.4651    6.7383    0.0000 H   0  0  0  0  0  0  0  0  0  0  0  0
    6.0622    5.9283    0.0000 H   0  0  0  0  0  0  0  0  0  0  0  0
   10.1774    6.6809    0.0000 H   0  0  0  0  0  0  0  0  0  0  0  0
    9.7807    7.4628    0.0000 H   0  0  0  0  0  0  0  0  0  0  0  0
    8.9987    7.0661    0.0000 H   0  0  0  0  0  0  0  0  0  0  0  0
   10.8610    4.4983    0.0000 H   0  0  0  0  0  0  0  0  0  0  0  0
   11.4810    5.1183    0.0000 H   0  0  0  0  0  0  0  0  0  0  0  0
   10.8610    5.7383    0.0000 H   0  0  0  0  0  0  0  0  0  0  0  0
    5.1131    3.1183    0.0000 H   0  0  0  0  0  0  0  0  0  0  0  0
    5.7331    2.4983    0.0000 H   0  0  0  0  0  0  0  0  0  0  0  0
    6.3531    3.1183    0.0000 H   0  0  0  0  0  0  0  0  0  0  0  0
    3.6720    8.9283    0.0000 H   0  0  0  0  0  0  0  0  0  0  0  0
    0.8660    7.3083    0.0000 H   0  0  0  0  0  0  0  0  0  0  0  0
    2.2690    6.4983    0.0000 H   0  0  0  0  0  0  0  0  0  0  0  0
    4.5380    7.4283    0.0000 H   0  0  0  0  0  0  0  0  0  0  0  0
    4.0010    3.4983    0.0000 H   0  0  0  0  0  0  0  0  0  0  0  0
    0.8469    9.6552    0.0000 H   0  0  0  0  0  0  0  0  0  0  0  0
    0.0000    9.4283    0.0000 H   0  0  0  0  0  0  0  0  0  0  0  0
    0.2269    8.5813    0.0000 H   0  0  0  0  0  0  0  0  0  0  0  0
    2.5981    4.3083    0.0000 H   0  0  0  0  0  0  0  0  0  0  0  0
    1.7320   11.4283    0.0000 H   0  0  0  0  0  0  0  0  0  0  0  0
    2.8059   11.4283    0.0000 H   0  0  0  0  0  0  0  0  0  0  0  0
    6.2405    0.0000    0.0000 H   0  0  0  0  0  0  0  0  0  0  0  0
  1 56  1  0  0  0  0
  2  3  2  0  0  0  0
  2  4  2  0  0  0  0
  2 11  1  0  0  0  0
  2 21  1  0  0  0  0
  5  7  1  0  0  0  0
  5 14  1  0  0  0  0
  5 22  1  0  0  0  0
  6 15  1  0  0  0  0
  6 20  1  0  0  0  0
  6 25  1  0  0  0  0
  7 13  2  0  0  0  0
  8 24  1  0  0  0  0
  8 29  1  0  0  0  0
  8 48  1  0  0  0  0
  9 20  2  0  0  0  0
  9 29  1  0  0  0  0
 10 29  2  0  0  0  0
 10 32  1  0  0  0  0
 11 54  1  0  0  0  0
 11 55  1  0  0  0  0
 12 13  1  0  0  0  0
 12 14  2  0  0  0  0
 12 17  1  0  0  0  0
 13 16  1  0  0  0  0
 14 19  1  0  0  0  0
 15 16  2  0  0  0  0
 15 18  1  0  0  0  0
 16 33  1  0  0  0  0
 17 18  2  0  0  0  0
 17 34  1  0  0  0  0
 18 35  1  0  0  0  0
 19 36  1  0  0  0  0
 19 37  1  0  0  0  0
 19 38  1  0  0  0  0
 20 30  1  0  0  0  0
 21 23  2  0  0  0  0
 21 26  1  0  0  0  0
 22 39  1  0  0  0  0
 22 40  1  0  0  0  0
 22 41  1  0  0  0  0
 23 27  1  0  0  0  0
 23 31  1  0  0  0  0
 24 26  2  0  0  0  0
 24 28  1  0  0  0  0
 25 42  1  0  0  0  0
 25 43  1  0  0  0  0
 25 44  1  0  0  0  0
 26 45  1  0  0  0  0
 27 28  2  0  0  0  0
 27 46  1  0  0  0  0
 28 47  1  0  0  0  0
 30 32  2  0  0  0  0
 30 49  1  0  0  0  0
 31 50  1  0  0  0  0
 31 51  1  0  0  0  0
 31 52  1  0  0  0  0
 32 53  1  0  0  0  0
M  END
> <PUBCHEM_COMPOUND_CID>
11525740

> <PUBCHEM_COMPOUND_CANONICALIZED>
1

> <PUBCHEM_CACTVS_COMPLEXITY>
717

> <PUBCHEM_CACTVS_HBOND_ACCEPTOR>
8

> <PUBCHEM_CACTVS_HBOND_DONOR>
3

> <PUBCHEM_CACTVS_ROTATABLE_BOND>
5

> <PUBCHEM_CACTVS_SUBSKEYS>
AAADceB7sABEAAAAAAAAAAAAAAAAAWAAAAA8YIAAAAAAAFgB/AAAHAQYQAAADAjBXgQ/8ffIEAKiAzZnZHDShDkxgqAZ2Dg4ZJiIKOLA2dGEpAxomALIyCcQgIAOCAAAACQGAAAQAAAASAwAAAAAAAAAAA==

> <PUBCHEM_IUPAC_OPENEYE_NAME>
5-[[4-[(2,3-dimethylindazol-6-yl)-methyl-amino]pyrimidin-2-yl]amino]-2-methyl-benzenesulfonamide;hydrochloride

> <PUBCHEM_IUPAC_CAS_NAME>
5-[[4-[(2,3-dimethyl-6-indazolyl)-methylamino]-2-pyrimidinyl]amino]-2-methylbenzenesulfonamide;hydrochloride

> <PUBCHEM_IUPAC_NAME_MARKUP>
5-[[4-[(2,3-dimethylindazol-6-yl)-methylamino]pyrimidin-2-yl]amino]-2-methylbenzenesulfonamide;hydrochloride

> <PUBCHEM_IUPAC_NAME>
5-[[4-[(2,3-dimethylindazol-6-yl)-methylamino]pyrimidin-2-yl]amino]-2-methylbenzenesulfonamide;hydrochloride

> <PUBCHEM_IUPAC_SYSTEMATIC_NAME>
5-[[4-[(2,3-dimethylindazol-6-yl)-methyl-amino]pyrimidin-2-yl]amino]-2-methyl-benzenesulfonamide;hydrochloride

> <PUBCHEM_IUPAC_TRADITIONAL_NAME>
5-[[4-[(2,3-dimethylindazol-6-yl)-methyl-amino]pyrimidin-2-yl]amino]-2-methyl-benzenesulfonamide;hydrochloride

> <PUBCHEM_IUPAC_INCHI>
InChI=1S/C21H23N7O2S.ClH/c1-13-5-6-15(11-19(13)31(22,29)30)24-21-23-10-9-20(25-21)27(3)16-7-8-17-14(2)28(4)26-18(17)12-16;/h5-12H,1-4H3,(H2,22,29,30)(H,23,24,25);1H

> <PUBCHEM_IUPAC_INCHIKEY>
MQHIQUBXFFAOMK-UHFFFAOYSA-N

> <PUBCHEM_EXACT_MASS>
473.1400719

> <PUBCHEM_MOLECULAR_FORMULA>
C21H24ClN7O2S

> <PUBCHEM_MOLECULAR_WEIGHT>
474.0

> <PUBCHEM_OPENEYE_CAN_SMILES>
CC1=C(C=C(C=C1)NC2=NC=CC(=N2)N(C)C3=CC4=NN(C(=C4C=C3)C)C)S(=O)(=O)N.Cl

> <PUBCHEM_OPENEYE_ISO_SMILES>
CC1=C(C=C(C=C1)NC2=NC=CC(=N2)N(C)C3=CC4=NN(C(=C4C=C3)C)C)S(=O)(=O)N.Cl

> <PUBCHEM_CACTVS_TPSA>
127

> <PUBCHEM_MONOISOTOPIC_WEIGHT>
473.1400719

> <PUBCHEM_TOTAL_CHARGE>
0

> <PUBCHEM_HEAVY_ATOM_COUNT>
32

> <PUBCHEM_ATOM_DEF_STEREO_COUNT>
0

> <PUBCHEM_ATOM_UDEF_STEREO_COUNT>
0

> <PUBCHEM_BOND_DEF_STEREO_COUNT>
0

> <PUBCHEM_BOND_UDEF_STEREO_COUNT>
0

> <PUBCHEM_ISOTOPIC_ATOM_COUNT>
0

> <PUBCHEM_COMPONENT_COUNT>
2

> <PUBCHEM_CACTVS_TAUTO_COUNT>
-1

> <PUBCHEM_COORDINATE_TYPE>
1
5
255

> <PUBCHEM_BONDANNOTATIONS>
10  29  8
10  32  8
12  13  8
12  14  8
12  17  8
13  16  8
15  16  8
15  18  8
17  18  8
20  30  8
21  23  8
21  26  8
23  27  8
24  26  8
24  28  8
27  28  8
30  32  8
5  14  8
5  7  8
7  13  8
9  20  8
9  29  8

$$$$
11236560
  -OEChem-11282412102D

 61 65  0     0  0  0  0  0  0999 V2000
    2.0000   -1.9901    0.0000 O   0  0  0  0  0  0  0  0  0  0  0  0
    6.3301   -3.4901    0.0000 O   0  0  0  0  0  0  0  0  0  0  0  0
   11.7173    2.5386    0.0000 O   0  0  0  0  0  0  0  0  0  0  0  0
    9.8106   -0.4555    0.0000 O   0  0  0  0  0  0  0  0  0  0  0  0
   14.4228    0.6082    0.0000 O   0  0  0  0  0  0  0  0  0  0  0  0
    3.7320   -2.9901    0.0000 N   0  0  0  0  0  0  0  0  0  0  0  0
    9.8222   -3.5248    0.0000 N   0  0  0  0  0  0  0  0  0  0  0  0
   14.7604    2.3071    0.0000 N   0  0  0  0  0  0  0  0  0  0  0  0
    2.8660   -3.4901    0.0000 C   0  0  0  0  0  0  0  0  0  0  0  0
    3.7320   -1.9901    0.0000 C   0  0  0  0  0  0  0  0  0  0  0  0
    4.5981   -3.4901    0.0000 C   0  0  0  0  0  0  0  0  0  0  0  0
    2.0000   -2.9901    0.0000 C   0  0  0  0  0  0  0  0  0  0  0  0
    2.8660   -1.4901    0.0000 C   0  0  0  0  0  0  0  0  0  0  0  0
    5.4641   -2.9901    0.0000 C   0  0  0  0  0  0  0  0  0  0  0  0
    7.1962   -2.9901    0.0000 C   0  0  0  0  0  0  0  0  0  0  0  0
   12.3911    1.0744    0.0000 C   0  0  0  0  0  0  0  0  0  0  0  0
   11.5194    1.5644    0.0000 C   0  0  0  0  0  0  0  0  0  0  0  0
   13.1204    1.7500    0.0000 C   0  0  0  0  0  0  0  0  0  0  0  0
    8.9282   -1.9901    0.0000 C   0  0  0  0  0  0  0  0  0  0  0  0
    8.9282   -2.9901    0.0000 C   0  0  0  0  0  0  0  0  0  0  0  0
    8.0622   -3.4901    0.0000 C   0  0  0  0  0  0  0  0  0  0  0  0
   12.7048    2.6530    0.0000 C   0  0  0  0  0  0  0  0  0  0  0  0
    7.1962   -1.9901    0.0000 C   0  0  0  0  0  0  0  0  0  0  0  0
    9.8222   -1.4554    0.0000 C   0  0  0  0  0  0  0  0  0  0  0  0
   10.6708    0.0545    0.0000 C   0  0  0  0  0  0  0  0  0  0  0  0
   10.6592    1.0544    0.0000 C   0  0  0  0  0  0  0  0  0  0  0  0
    8.0622   -1.4901    0.0000 C   0  0  0  0  0  0  0  0  0  0  0  0
   12.4027    0.0745    0.0000 C   0  0  0  0  0  0  0  0  0  0  0  0
   11.5425   -0.4355    0.0000 C   0  0  0  0  0  0  0  0  0  0  0  0
   14.1012    1.5551    0.0000 C   0  0  0  0  0  0  0  0  0  0  0  0
   13.1948    3.5248    0.0000 C   0  0  0  0  0  0  0  0  0  0  0  0
   10.7282   -1.9693    0.0000 C   0  0  0  0  0  0  0  0  0  0  0  0
   10.7282   -3.0109    0.0000 C   0  0  0  0  0  0  0  0  0  0  0  0
   15.7412    2.1122    0.0000 C   0  0  0  0  0  0  0  0  0  0  0  0
    2.4675   -3.9651    0.0000 H   0  0  0  0  0  0  0  0  0  0  0  0
    3.2646   -3.9651    0.0000 H   0  0  0  0  0  0  0  0  0  0  0  0
    4.3426   -2.0978    0.0000 H   0  0  0  0  0  0  0  0  0  0  0  0
    3.9441   -1.4075    0.0000 H   0  0  0  0  0  0  0  0  0  0  0  0
    4.1996   -3.9651    0.0000 H   0  0  0  0  0  0  0  0  0  0  0  0
    4.9966   -3.9651    0.0000 H   0  0  0  0  0  0  0  0  0  0  0  0
    1.3894   -2.8824    0.0000 H   0  0  0  0  0  0  0  0  0  0  0  0
    1.7880   -3.5727    0.0000 H   0  0  0  0  0  0  0  0  0  0  0  0
    3.2646   -1.0152    0.0000 H   0  0  0  0  0  0  0  0  0  0  0  0
    2.4675   -1.0152    0.0000 H   0  0  0  0  0  0  0  0  0  0  0  0
    5.8626   -2.5152    0.0000 H   0  0  0  0  0  0  0  0  0  0  0  0
    5.0656   -2.5152    0.0000 H   0  0  0  0  0  0  0  0  0  0  0  0
    8.0622   -4.1101    0.0000 H   0  0  0  0  0  0  0  0  0  0  0  0
    6.6592   -1.6801    0.0000 H   0  0  0  0  0  0  0  0  0  0  0  0
   10.1187    1.3582    0.0000 H   0  0  0  0  0  0  0  0  0  0  0  0
    8.0622   -0.8701    0.0000 H   0  0  0  0  0  0  0  0  0  0  0  0
   12.9432   -0.2293    0.0000 H   0  0  0  0  0  0  0  0  0  0  0  0
   11.5497   -1.0554    0.0000 H   0  0  0  0  0  0  0  0  0  0  0  0
   13.7352    3.2210    0.0000 H   0  0  0  0  0  0  0  0  0  0  0  0
   13.4985    4.0653    0.0000 H   0  0  0  0  0  0  0  0  0  0  0  0
   12.6543    3.8286    0.0000 H   0  0  0  0  0  0  0  0  0  0  0  0
   11.2639   -1.6572    0.0000 H   0  0  0  0  0  0  0  0  0  0  0  0
   11.2639   -3.3230    0.0000 H   0  0  0  0  0  0  0  0  0  0  0  0
   14.5610    2.8941    0.0000 H   0  0  0  0  0  0  0  0  0  0  0  0
   15.6204    1.5041    0.0000 H   0  0  0  0  0  0  0  0  0  0  0  0
   16.3493    1.9914    0.0000 H   0  0  0  0  0  0  0  0  0  0  0  0
   15.8621    2.7203    0.0000 H   0  0  0  0  0  0  0  0  0  0  0  0
  1 12  1  0  0  0  0
  1 13  1  0  0  0  0
  2 14  1  0  0  0  0
  2 15  1  0  0  0  0
  3 17  1  0  0  0  0
  3 22  1  0  0  0  0
  4 24  1  0  0  0  0
  4 25  1  0  0  0  0
  5 30  2  0  0  0  0
  6  9  1  0  0  0  0
  6 10  1  0  0  0  0
  6 11  1  0  0  0  0
  7 20  2  0  0  0  0
  7 33  1  0  0  0  0
  8 30  1  0  0  0  0
  8 34  1  0  0  0  0
  8 58  1  0  0  0  0
  9 12  1  0  0  0  0
  9 35  1  0  0  0  0
  9 36  1  0  0  0  0
 10 13  1  0  0  0  0
 10 37  1  0  0  0  0
 10 38  1  0  0  0  0
 11 14  1  0  0  0  0
 11 39  1  0  0  0  0
 11 40  1  0  0  0  0
 12 41  1  0  0  0  0
 12 42  1  0  0  0  0
 13 43  1  0  0  0  0
 13 44  1  0  0  0  0
 14 45  1  0  0  0  0
 14 46  1  0  0  0  0
 15 21  2  0  0  0  0
 15 23  1  0  0  0  0
 16 17  2  0  0  0  0
 16 18  1  0  0  0  0
 16 28  1  0  0  0  0
 17 26  1  0  0  0  0
 18 22  2  0  0  0  0
 18 30  1  0  0  0  0
 19 20  1  0  0  0  0
 19 24  2  0  0  0  0
 19 27  1  0  0  0  0
 20 21  1  0  0  0  0
 21 47  1  0  0  0  0
 22 31  1  0  0  0  0
 23 27  2  0  0  0  0
 23 48  1  0  0  0  0
 24 32  1  0  0  0  0
 25 26  2  0  0  0  0
 25 29  1  0  0  0  0
 26 49  1  0  0  0  0
 27 50  1  0  0  0  0
 28 29  2  0  0  0  0
 28 51  1  0  0  0  0
 29 52  1  0  0  0  0
 31 53  1  0  0  0  0
 31 54  1  0  0  0  0
 31 55  1  0  0  0  0
 32 33  2  0  0  0  0
 32 56  1  0  0  0  0
 33 57  1  0  0  0  0
 34 59  1  0  0  0  0
 34 60  1  0  0  0  0
 34 61  1  0  0  0  0
M  END
> <PUBCHEM_COMPOUND_CID>
11236560

> <PUBCHEM_COMPOUND_CANONICALIZED>
1

> <PUBCHEM_CACTVS_COMPLEXITY>
675

> <PUBCHEM_CACTVS_HBOND_ACCEPTOR>
7

> <PUBCHEM_CACTVS_HBOND_DONOR>
1

> <PUBCHEM_CACTVS_ROTATABLE_BOND>
7

> <PUBCHEM_CACTVS_SUBSKEYS>
AAADceB7OAAAAAAAAAAAAAAAAAAAASAAAAA8eIEAAAAAAEix/gAAHgAQAAAADAzhngY+xvPIFECoA7V3VACCiCA1IiAI2KE+bNgOJ/7MtZuHOWjn4h3Y6Ye//P/OoAAACgAKAABAAAAUABQAAAAAAAAAAA==

> <PUBCHEM_IUPAC_OPENEYE_NAME>
N,2-dimethyl-6-[[7-(2-morpholinoethoxy)-4-quinolyl]oxy]benzofuran-3-carboxamide

> <PUBCHEM_IUPAC_CAS_NAME>
N,2-dimethyl-6-[[7-[2-(4-morpholinyl)ethoxy]-4-quinolinyl]oxy]-3-benzofurancarboxamide

> <PUBCHEM_IUPAC_NAME_MARKUP>
<I>N</I>,2-dimethyl-6-[7-(2-morpholin-4-ylethoxy)quinolin-4-yl]oxy-1-benzofuran-3-carboxamide

> <PUBCHEM_IUPAC_NAME>
N,2-dimethyl-6-[7-(2-morpholin-4-ylethoxy)quinolin-4-yl]oxy-1-benzofuran-3-carboxamide

> <PUBCHEM_IUPAC_SYSTEMATIC_NAME>
N,2-dimethyl-6-[7-(2-morpholin-4-ylethoxy)quinolin-4-yl]oxy-1-benzofuran-3-carboxamide

> <PUBCHEM_IUPAC_TRADITIONAL_NAME>
N,2-dimethyl-6-[[7-(2-morpholinoethoxy)-4-quinolyl]oxy]benzofuran-3-carboxamide

> <PUBCHEM_IUPAC_INCHI>
InChI=1S/C26H27N3O5/c1-17-25(26(30)27-2)21-6-4-19(16-24(21)33-17)34-23-7-8-28-22-15-18(3-5-20(22)23)32-14-11-29-9-12-31-13-10-29/h3-8,15-16H,9-14H2,1-2H3,(H,27,30)

> <PUBCHEM_IUPAC_INCHIKEY>
LGXVKMDGSIWEHL-UHFFFAOYSA-N

> <PUBCHEM_XLOGP3_AA>
3.4

> <PUBCHEM_EXACT_MASS>
461.19507097

> <PUBCHEM_MOLECULAR_FORMULA>
C26H27N3O5

> <PUBCHEM_MOLECULAR_WEIGHT>
461.5

> <PUBCHEM_OPENEYE_CAN_SMILES>
CC1=C(C2=C(O1)C=C(C=C2)OC3=C4C=CC(=CC4=NC=C3)OCCN5CCOCC5)C(=O)NC

> <PUBCHEM_OPENEYE_ISO_SMILES>
CC1=C(C2=C(O1)C=C(C=C2)OC3=C4C=CC(=CC4=NC=C3)OCCN5CCOCC5)C(=O)NC

> <PUBCHEM_CACTVS_TPSA>
86.1

> <PUBCHEM_MONOISOTOPIC_WEIGHT>
461.19507097

> <PUBCHEM_TOTAL_CHARGE>
0

> <PUBCHEM_HEAVY_ATOM_COUNT>
34

> <PUBCHEM_ATOM_DEF_STEREO_COUNT>
0

> <PUBCHEM_ATOM_UDEF_STEREO_COUNT>
0

> <PUBCHEM_BOND_DEF_STEREO_COUNT>
0

> <PUBCHEM_BOND_UDEF_STEREO_COUNT>
0

> <PUBCHEM_ISOTOPIC_ATOM_COUNT>
0

> <PUBCHEM_COMPONENT_COUNT>
1

> <PUBCHEM_CACTVS_TAUTO_COUNT>
-1

> <PUBCHEM_COORDINATE_TYPE>
1
5
255

> <PUBCHEM_BONDANNOTATIONS>
15  21  8
15  23  8
16  17  8
16  18  8
16  28  8
17  26  8
18  22  8
19  20  8
19  24  8
19  27  8
20  21  8
23  27  8
24  32  8
25  26  8
25  29  8
28  29  8
3  17  8
3  22  8
32  33  8
7  20  8
7  33  8

$$$$
89670174
  -OEChem-11282412102D

 52 58  0     1  0  0  0  0  0999 V2000
    3.9890   -3.8837    0.0000 F   0  0  0  0  0  0  0  0  0  0  0  0
    2.8900   -4.7737    0.0000 F   0  0  0  0  0  0  0  0  0  0  0  0
    2.0000   -3.6747    0.0000 F   0  0  0  0  0  0  0  0  0  0  0  0
    5.6135    2.9031    0.0000 O   0  0  0  0  0  0  0  0  0  0  0  0
    9.6182    2.2768    0.0000 O   0  0  0  0  0  0  0  0  0  0  0  0
   14.2335    2.1319    0.0000 O   0  0  0  0  0  0  0  0  0  0  0  0
    4.9198   -0.7970    0.0000 N   0  0  0  0  0  0  0  0  0  0  0  0
    3.6178    0.1490    0.0000 N   0  0  0  0  0  0  0  0  0  0  0  0
   12.9643    3.3106    0.0000 N   0  0  0  0  0  0  0  0  0  0  0  0
   11.6983    4.5337    0.0000 N   0  0  0  0  0  0  0  0  0  0  0  0
    6.1135    1.3643    0.0000 C   0  0  1  0  0  0  0  0  0  0  0  0
    5.1996    0.9571    0.0000 C   0  0  1  0  0  0  0  0  0  0  0  0
    5.3044    1.9521    0.0000 C   0  0  1  0  0  0  0  0  0  0  0  0
    6.9225    1.9521    0.0000 C   0  0  0  0  0  0  0  0  0  0  0  0
    4.6118    0.1481    0.0000 C   0  0  0  0  0  0  0  0  0  0  0  0
    6.6135    2.9031    0.0000 C   0  0  0  0  0  0  0  0  0  0  0  0
    7.9379    1.7198    0.0000 C   0  0  0  0  0  0  0  0  0  0  0  0
    7.2984    3.6879    0.0000 C   0  0  0  0  0  0  0  0  0  0  0  0
    8.6408    2.4885    0.0000 C   0  0  0  0  0  0  0  0  0  0  0  0
    4.1171   -1.3834    0.0000 C   0  0  0  0  0  0  0  0  0  0  0  0
    3.3081   -0.7956    0.0000 C   0  0  0  0  0  0  0  0  0  0  0  0
    8.3189    3.4792    0.0000 C   0  0  0  0  0  0  0  0  0  0  0  0
    4.0126   -2.3779    0.0000 C   0  0  0  0  0  0  0  0  0  0  0  0
    2.3946   -1.2024    0.0000 C   0  0  0  0  0  0  0  0  0  0  0  0
    3.0990   -2.7847    0.0000 C   0  0  0  0  0  0  0  0  0  0  0  0
    2.2900   -2.1969    0.0000 C   0  0  0  0  0  0  0  0  0  0  0  0
   10.2901    3.0174    0.0000 C   0  0  0  0  0  0  0  0  0  0  0  0
   11.3090    2.8008    0.0000 C   0  0  0  0  0  0  0  0  0  0  0  0
    2.9945   -3.7792    0.0000 C   0  0  0  0  0  0  0  0  0  0  0  0
   11.6033    1.8451    0.0000 C   0  0  0  0  0  0  0  0  0  0  0  0
    9.9759    4.0105    0.0000 C   0  0  0  0  0  0  0  0  0  0  0  0
   11.9895    3.5336    0.0000 C   0  0  0  0  0  0  0  0  0  0  0  0
   12.5782    1.6222    0.0000 C   0  0  0  0  0  0  0  0  0  0  0  0
   13.2587    2.3549    0.0000 C   0  0  0  0  0  0  0  0  0  0  0  0
   10.6847    4.7737    0.0000 C   0  0  0  0  0  0  0  0  0  0  0  0
    6.5386    0.6282    0.0000 H   0  0  0  0  0  0  0  0  0  0  0  0
    4.4061    1.2618    0.0000 H   0  0  0  0  0  0  0  0  0  0  0  0
    4.4730    2.1289    0.0000 H   0  0  0  0  0  0  0  0  0  0  0  0
    8.1226    1.1280    0.0000 H   0  0  0  0  0  0  0  0  0  0  0  0
    5.5098   -0.9876    0.0000 H   0  0  0  0  0  0  0  0  0  0  0  0
    7.1000    4.2753    0.0000 H   0  0  0  0  0  0  0  0  0  0  0  0
    8.7320    3.9415    0.0000 H   0  0  0  0  0  0  0  0  0  0  0  0
    4.5142   -2.7424    0.0000 H   0  0  0  0  0  0  0  0  0  0  0  0
    1.8930   -0.8380    0.0000 H   0  0  0  0  0  0  0  0  0  0  0  0
    1.7236   -2.4491    0.0000 H   0  0  0  0  0  0  0  0  0  0  0  0
   10.9881    1.7683    0.0000 H   0  0  0  0  0  0  0  0  0  0  0  0
   11.5721    1.2259    0.0000 H   0  0  0  0  0  0  0  0  0  0  0  0
    9.3710    4.1464    0.0000 H   0  0  0  0  0  0  0  0  0  0  0  0
   12.3371    1.0509    0.0000 H   0  0  0  0  0  0  0  0  0  0  0  0
   13.0988    1.2855    0.0000 H   0  0  0  0  0  0  0  0  0  0  0  0
   13.3863    3.7649    0.0000 H   0  0  0  0  0  0  0  0  0  0  0  0
   10.5046    5.3670    0.0000 H   0  0  0  0  0  0  0  0  0  0  0  0
  1 29  1  0  0  0  0
  2 29  1  0  0  0  0
  3 29  1  0  0  0  0
  4 13  1  0  0  0  0
  4 16  1  0  0  0  0
  5 19  1  0  0  0  0
  5 27  1  0  0  0  0
  6 34  2  0  0  0  0
  7 15  1  0  0  0  0
  7 20  1  0  0  0  0
  7 40  1  0  0  0  0
  8 15  2  0  0  0  0
  8 21  1  0  0  0  0
  9 32  1  0  0  0  0
  9 34  1  0  0  0  0
  9 51  1  0  0  0  0
 10 32  2  0  0  0  0
 10 35  1  0  0  0  0
 11 12  1  0  0  0  0
 11 13  1  0  0  0  0
 11 14  1  0  0  0  0
 11 36  1  6  0  0  0
 12 13  1  0  0  0  0
 12 15  1  0  0  0  0
 12 37  1  1  0  0  0
 13 38  1  6  0  0  0
 14 16  2  0  0  0  0
 14 17  1  0  0  0  0
 16 18  1  0  0  0  0
 17 19  2  0  0  0  0
 17 39  1  0  0  0  0
 18 22  2  0  0  0  0
 18 41  1  0  0  0  0
 19 22  1  0  0  0  0
 20 21  2  0  0  0  0
 20 23  1  0  0  0  0
 21 24  1  0  0  0  0
 22 42  1  0  0  0  0
 23 25  2  0  0  0  0
 23 43  1  0  0  0  0
 24 26  2  0  0  0  0
 24 44  1  0  0  0  0
 25 26  1  0  0  0  0
 25 29  1  0  0  0  0
 26 45  1  0  0  0  0
 27 28  2  0  0  0  0
 27 31  1  0  0  0  0
 28 30  1  0  0  0  0
 28 32  1  0  0  0  0
 30 33  1  0  0  0  0
 30 46  1  0  0  0  0
 30 47  1  0  0  0  0
 31 35  2  0  0  0  0
 31 48  1  0  0  0  0
 33 34  1  0  0  0  0
 33 49  1  0  0  0  0
 33 50  1  0  0  0  0
 35 52  1  0  0  0  0
M  END
> <PUBCHEM_COMPOUND_CID>
89670174

> <PUBCHEM_COMPOUND_CANONICALIZED>
1

> <PUBCHEM_CACTVS_COMPLEXITY>
845

> <PUBCHEM_CACTVS_HBOND_ACCEPTOR>
8

> <PUBCHEM_CACTVS_HBOND_DONOR>
2

> <PUBCHEM_CACTVS_ROTATABLE_BOND>
3

> <PUBCHEM_CACTVS_SUBSKEYS>
AAADceB7sYAAAAAAAAAAAAAAGAAAAWJAAAA8eJECAAAAAFix/AAAHwAQAAAADRzhnxY99rbJlACoAzd3dACCiC2xMqAJ2SE+fJiMbvLEuZuWOCju1RvI6Cf4/f7OiQABQAAIACASAAKAABAAQAAAAAAAAA==

> <PUBCHEM_IUPAC_OPENEYE_NAME>
5-[[(1R,1aS,6bR)-1-[6-(trifluoromethyl)-1H-benzimidazol-2-yl]-1a,6b-dihydro-1H-cyclopropa[b]benzofuran-5-yl]oxy]-3,4-dihydro-1H-1,8-naphthyridin-2-one

> <PUBCHEM_IUPAC_CAS_NAME>
5-[[(1R,1aS,6bR)-1-[6-(trifluoromethyl)-1H-benzimidazol-2-yl]-1a,6b-dihydro-1H-cyclopropa[b]benzofuran-5-yl]oxy]-3,4-dihydro-1H-1,8-naphthyridin-2-one

> <PUBCHEM_IUPAC_NAME_MARKUP>
5-[[(1<I>R</I>,1<I>a</I><I>S</I>,6<I>b</I><I>R</I>)-1-[6-(trifluoromethyl)-1<I>H</I>-benzimidazol-2-yl]-1<I>a</I>,6<I>b</I>-dihydro-1<I>H</I>-cyclopropa[b][1]benzofuran-5-yl]oxy]-3,4-dihydro-1<I>H</I>-1,8-naphthyridin-2-one

> <PUBCHEM_IUPAC_NAME>
5-[[(1R,1aS,6bR)-1-[6-(trifluoromethyl)-1H-benzimidazol-2-yl]-1a,6b-dihydro-1H-cyclopropa[b][1]benzofuran-5-yl]oxy]-3,4-dihydro-1H-1,8-naphthyridin-2-one

> <PUBCHEM_IUPAC_SYSTEMATIC_NAME>
5-[[(1R,1aS,6bR)-1-[6-(trifluoromethyl)-1H-benzimidazol-2-yl]-1a,6b-dihydro-1H-cyclopropa[b][1]benzofuran-5-yl]oxy]-3,4-dihydro-1H-1,8-naphthyridin-2-one

> <PUBCHEM_IUPAC_TRADITIONAL_NAME>
5-[[(1R,1aS,6bR)-1-[6-(trifluoromethyl)-1H-benzimidazol-2-yl]-1a,6b-dihydro-1H-cyclopropa[b]benzofuran-5-yl]oxy]-3,4-dihydro-1H-1,8-naphthyridin-2-one

> <PUBCHEM_IUPAC_INCHI>
InChI=1S/C25H17F3N4O3/c26-25(27,28)11-1-4-15-16(9-11)31-24(30-15)21-20-14-10-12(2-5-17(14)35-22(20)21)34-18-7-8-29-23-13(18)3-6-19(33)32-23/h1-2,4-5,7-10,20-22H,3,6H2,(H,30,31)(H,29,32,33)/t20-,21-,22-/m0/s1

> <PUBCHEM_IUPAC_INCHIKEY>
NGFFVZQXSRKHBM-FKBYEOEOSA-N

> <PUBCHEM_XLOGP3_AA>
3.7

> <PUBCHEM_EXACT_MASS>
478.12527490

> <PUBCHEM_MOLECULAR_FORMULA>
C25H17F3N4O3

> <PUBCHEM_MOLECULAR_WEIGHT>
478.4

> <PUBCHEM_OPENEYE_CAN_SMILES>
C1CC(=O)NC2=NC=CC(=C21)OC3=CC4=C(C=C3)OC5C4C5C6=NC7=C(N6)C=C(C=C7)C(F)(F)F

> <PUBCHEM_OPENEYE_ISO_SMILES>
C1CC(=O)NC2=NC=CC(=C21)OC3=CC4=C(C=C3)O[C@H]5[C@@H]4[C@@H]5C6=NC7=C(N6)C=C(C=C7)C(F)(F)F

> <PUBCHEM_CACTVS_TPSA>
89.1

> <PUBCHEM_MONOISOTOPIC_WEIGHT>
478.12527490

> <PUBCHEM_TOTAL_CHARGE>
0

> <PUBCHEM_HEAVY_ATOM_COUNT>
35

> <PUBCHEM_ATOM_DEF_STEREO_COUNT>
3

> <PUBCHEM_ATOM_UDEF_STEREO_COUNT>
0

> <PUBCHEM_BOND_DEF_STEREO_COUNT>
0

> <PUBCHEM_BOND_UDEF_STEREO_COUNT>
0

> <PUBCHEM_ISOTOPIC_ATOM_COUNT>
0

> <PUBCHEM_COMPONENT_COUNT>
1

> <PUBCHEM_CACTVS_TAUTO_COUNT>
10

> <PUBCHEM_COORDINATE_TYPE>
1
5
255

> <PUBCHEM_BONDANNOTATIONS>
10  32  8
10  35  8
11  36  6
12  37  5
13  38  6
14  16  8
14  17  8
16  18  8
17  19  8
18  22  8
19  22  8
20  21  8
20  23  8
21  24  8
23  25  8
24  26  8
25  26  8
27  28  8
27  31  8
28  32  8
31  35  8
7  15  8
7  20  8
8  15  8
8  21  8

$$$$
57379345
  -OEChem-11282412102D

 74 77  0     0  0  0  0  0  0999 V2000
    8.9282    4.3100    0.0000 Cl  0  0  0  0  0  0  0  0  0  0  0  0
   10.6603    1.3100    0.0000 S   0  0  0  0  0  0  0  0  0  0  0  0
    3.7320    1.3100    0.0000 O   0  0  0  0  0  0  0  0  0  0  0  0
   11.6603    1.3100    0.0000 O   0  0  0  0  0  0  0  0  0  0  0  0
    9.6602    1.3100    0.0000 O   0  0  0  0  0  0  0  0  0  0  0  0
    5.4641   -3.6900    0.0000 N   0  0  0  0  0  0  0  0  0  0  0  0
    5.4641    2.3100    0.0000 N   0  0  0  0  0  0  0  0  0  0  0  0
    8.9282    2.3100    0.0000 N   0  0  0  0  0  0  0  0  0  0  0  0
    7.1962    2.3100    0.0000 N   0  0  0  0  0  0  0  0  0  0  0  0
    6.3301    3.8100    0.0000 N   0  0  0  0  0  0  0  0  0  0  0  0
    5.4641   -1.6900    0.0000 C   0  0  0  0  0  0  0  0  0  0  0  0
    6.3301   -2.1900    0.0000 C   0  0  0  0  0  0  0  0  0  0  0  0
    4.5981   -2.1900    0.0000 C   0  0  0  0  0  0  0  0  0  0  0  0
    6.3301   -3.1900    0.0000 C   0  0  0  0  0  0  0  0  0  0  0  0
    4.5981   -3.1900    0.0000 C   0  0  0  0  0  0  0  0  0  0  0  0
    5.4641   -0.6900    0.0000 C   0  0  0  0  0  0  0  0  0  0  0  0
    6.3301   -0.1900    0.0000 C   0  0  0  0  0  0  0  0  0  0  0  0
    4.5981   -0.1900    0.0000 C   0  0  0  0  0  0  0  0  0  0  0  0
    4.5981    0.8100    0.0000 C   0  0  0  0  0  0  0  0  0  0  0  0
    6.3301    0.8100    0.0000 C   0  0  0  0  0  0  0  0  0  0  0  0
    5.4641    1.3100    0.0000 C   0  0  0  0  0  0  0  0  0  0  0  0
    7.1962   -0.6900    0.0000 C   0  0  0  0  0  0  0  0  0  0  0  0
    2.8660    0.8100    0.0000 C   0  0  0  0  0  0  0  0  0  0  0  0
   10.6603    0.3100    0.0000 C   0  0  0  0  0  0  0  0  0  0  0  0
    6.3301    2.8100    0.0000 C   0  0  0  0  0  0  0  0  0  0  0  0
   10.6603    2.3100    0.0000 C   0  0  0  0  0  0  0  0  0  0  0  0
    2.0000    1.3100    0.0000 C   0  0  0  0  0  0  0  0  0  0  0  0
    2.8660   -0.1900    0.0000 C   0  0  0  0  0  0  0  0  0  0  0  0
    9.7942    2.8100    0.0000 C   0  0  0  0  0  0  0  0  0  0  0  0
   11.5263   -0.1900    0.0000 C   0  0  0  0  0  0  0  0  0  0  0  0
    9.7942   -0.1900    0.0000 C   0  0  0  0  0  0  0  0  0  0  0  0
   11.5263    2.8100    0.0000 C   0  0  0  0  0  0  0  0  0  0  0  0
    8.0622    2.8100    0.0000 C   0  0  0  0  0  0  0  0  0  0  0  0
    9.7942    3.8100    0.0000 C   0  0  0  0  0  0  0  0  0  0  0  0
   11.5263    3.8100    0.0000 C   0  0  0  0  0  0  0  0  0  0  0  0
   10.6603    4.3100    0.0000 C   0  0  0  0  0  0  0  0  0  0  0  0
    8.0622    3.8100    0.0000 C   0  0  0  0  0  0  0  0  0  0  0  0
    7.1962    4.3100    0.0000 C   0  0  0  0  0  0  0  0  0  0  0  0
    6.0010   -1.3800    0.0000 H   0  0  0  0  0  0  0  0  0  0  0  0
    6.9407   -2.2977    0.0000 H   0  0  0  0  0  0  0  0  0  0  0  0
    6.5422   -1.6074    0.0000 H   0  0  0  0  0  0  0  0  0  0  0  0
    4.3860   -1.6074    0.0000 H   0  0  0  0  0  0  0  0  0  0  0  0
    3.9875   -2.2977    0.0000 H   0  0  0  0  0  0  0  0  0  0  0  0
    6.5422   -3.7726    0.0000 H   0  0  0  0  0  0  0  0  0  0  0  0
    6.9407   -3.0823    0.0000 H   0  0  0  0  0  0  0  0  0  0  0  0
    3.9875   -3.0823    0.0000 H   0  0  0  0  0  0  0  0  0  0  0  0
    4.3860   -3.7726    0.0000 H   0  0  0  0  0  0  0  0  0  0  0  0
    5.4641   -4.3100    0.0000 H   0  0  0  0  0  0  0  0  0  0  0  0
    4.0611   -0.5000    0.0000 H   0  0  0  0  0  0  0  0  0  0  0  0
    6.8671    1.1200    0.0000 H   0  0  0  0  0  0  0  0  0  0  0  0
    6.8862   -1.2269    0.0000 H   0  0  0  0  0  0  0  0  0  0  0  0
    7.7331   -1.0000    0.0000 H   0  0  0  0  0  0  0  0  0  0  0  0
    7.5062   -0.1531    0.0000 H   0  0  0  0  0  0  0  0  0  0  0  0
    4.9272    2.6200    0.0000 H   0  0  0  0  0  0  0  0  0  0  0  0
    2.8660    1.4300    0.0000 H   0  0  0  0  0  0  0  0  0  0  0  0
   11.1972    0.6200    0.0000 H   0  0  0  0  0  0  0  0  0  0  0  0
    2.3100    1.8469    0.0000 H   0  0  0  0  0  0  0  0  0  0  0  0
    1.4631    1.6200    0.0000 H   0  0  0  0  0  0  0  0  0  0  0  0
    1.6900    0.7731    0.0000 H   0  0  0  0  0  0  0  0  0  0  0  0
    2.2460   -0.1900    0.0000 H   0  0  0  0  0  0  0  0  0  0  0  0
    2.8660   -0.8100    0.0000 H   0  0  0  0  0  0  0  0  0  0  0  0
    3.4860   -0.1900    0.0000 H   0  0  0  0  0  0  0  0  0  0  0  0
   11.2163   -0.7269    0.0000 H   0  0  0  0  0  0  0  0  0  0  0  0
   12.0632   -0.5000    0.0000 H   0  0  0  0  0  0  0  0  0  0  0  0
   11.8363    0.3469    0.0000 H   0  0  0  0  0  0  0  0  0  0  0  0
    9.4842    0.3469    0.0000 H   0  0  0  0  0  0  0  0  0  0  0  0
    9.2573   -0.5000    0.0000 H   0  0  0  0  0  0  0  0  0  0  0  0
   10.1042   -0.7269    0.0000 H   0  0  0  0  0  0  0  0  0  0  0  0
   12.0632    2.5000    0.0000 H   0  0  0  0  0  0  0  0  0  0  0  0
    8.9282    1.6900    0.0000 H   0  0  0  0  0  0  0  0  0  0  0  0
    9.2573    4.1200    0.0000 H   0  0  0  0  0  0  0  0  0  0  0  0
   12.0632    4.1200    0.0000 H   0  0  0  0  0  0  0  0  0  0  0  0
   10.6603    4.9300    0.0000 H   0  0  0  0  0  0  0  0  0  0  0  0
    7.1962    4.9300    0.0000 H   0  0  0  0  0  0  0  0  0  0  0  0
  1 37  1  0  0  0  0
  2  4  2  0  0  0  0
  2  5  2  0  0  0  0
  2 24  1  0  0  0  0
  2 26  1  0  0  0  0
  3 19  1  0  0  0  0
  3 23  1  0  0  0  0
  6 14  1  0  0  0  0
  6 15  1  0  0  0  0
  6 48  1  0  0  0  0
  7 21  1  0  0  0  0
  7 25  1  0  0  0  0
  7 54  1  0  0  0  0
  8 29  1  0  0  0  0
  8 33  1  0  0  0  0
  8 70  1  0  0  0  0
  9 25  1  0  0  0  0
  9 33  2  0  0  0  0
 10 25  2  0  0  0  0
 10 38  1  0  0  0  0
 11 12  1  0  0  0  0
 11 13  1  0  0  0  0
 11 16  1  0  0  0  0
 11 39  1  0  0  0  0
 12 14  1  0  0  0  0
 12 40  1  0  0  0  0
 12 41  1  0  0  0  0
 13 15  1  0  0  0  0
 13 42  1  0  0  0  0
 13 43  1  0  0  0  0
 14 44  1  0  0  0  0
 14 45  1  0  0  0  0
 15 46  1  0  0  0  0
 15 47  1  0  0  0  0
 16 17  1  0  0  0  0
 16 18  2  0  0  0  0
 17 20  2  0  0  0  0
 17 22  1  0  0  0  0
 18 19  1  0  0  0  0
 18 49  1  0  0  0  0
 19 21  2  0  0  0  0
 20 21  1  0  0  0  0
 20 50  1  0  0  0  0
 22 51  1  0  0  0  0
 22 52  1  0  0  0  0
 22 53  1  0  0  0  0
 23 27  1  0  0  0  0
 23 28  1  0  0  0  0
 23 55  1  0  0  0  0
 24 30  1  0  0  0  0
 24 31  1  0  0  0  0
 24 56  1  0  0  0  0
 26 29  1  0  0  0  0
 26 32  2  0  0  0  0
 27 57  1  0  0  0  0
 27 58  1  0  0  0  0
 27 59  1  0  0  0  0
 28 60  1  0  0  0  0
 28 61  1  0  0  0  0
 28 62  1  0  0  0  0
 29 34  2  0  0  0  0
 30 63  1  0  0  0  0
 30 64  1  0  0  0  0
 30 65  1  0  0  0  0
 31 66  1  0  0  0  0
 31 67  1  0  0  0  0
 31 68  1  0  0  0  0
 32 35  1  0  0  0  0
 32 69  1  0  0  0  0
 33 37  1  0  0  0  0
 34 36  1  0  0  0  0
 34 71  1  0  0  0  0
 35 36  2  0  0  0  0
 35 72  1  0  0  0  0
 36 73  1  0  0  0  0
 37 38  2  0  0  0  0
 38 74  1  0  0  0  0
M  END
> <PUBCHEM_COMPOUND_CID>
57379345

> <PUBCHEM_COMPOUND_CANONICALIZED>
1

> <PUBCHEM_CACTVS_COMPLEXITY>
835

> <PUBCHEM_CACTVS_HBOND_ACCEPTOR>
8

> <PUBCHEM_CACTVS_HBOND_DONOR>
3

> <PUBCHEM_CACTVS_ROTATABLE_BOND>
9

> <PUBCHEM_CACTVS_SUBSKEYS>
AAADcfB7sABEAAAAAAAAAAAAAAAAAAAAAAA8eIEAAAAAAAAB0AAAHgYQAAAADR7l2ia/95bIFAqgAjZnZHDCiCkxK7AJ2LwvbJiOLuLk+dvHPCjs0BP46CeQwPAOqAABQAAQEQBQAAKAACAiAAAAAAAAAA==

> <PUBCHEM_IUPAC_OPENEYE_NAME>
5-chloro-N2-[2-isopropoxy-5-methyl-4-(4-piperidyl)phenyl]-N4-(2-isopropylsulfonylphenyl)pyrimidine-2,4-diamine

> <PUBCHEM_IUPAC_CAS_NAME>
5-chloro-N2-[5-methyl-4-(4-piperidinyl)-2-propan-2-yloxyphenyl]-N4-(2-propan-2-ylsulfonylphenyl)pyrimidine-2,4-diamine

> <PUBCHEM_IUPAC_NAME_MARKUP>
5-chloro-2-<I>N</I>-(5-methyl-4-piperidin-4-yl-2-propan-2-yloxyphenyl)-4-<I>N</I>-(2-propan-2-ylsulfonylphenyl)pyrimidine-2,4-diamine

> <PUBCHEM_IUPAC_NAME>
5-chloro-2-N-(5-methyl-4-piperidin-4-yl-2-propan-2-yloxyphenyl)-4-N-(2-propan-2-ylsulfonylphenyl)pyrimidine-2,4-diamine

> <PUBCHEM_IUPAC_SYSTEMATIC_NAME>
5-chloranyl-N2-(5-methyl-4-piperidin-4-yl-2-propan-2-yloxy-phenyl)-N4-(2-propan-2-ylsulfonylphenyl)pyrimidine-2,4-diamine

> <PUBCHEM_IUPAC_TRADITIONAL_NAME>
[5-chloro-2-[2-isopropoxy-5-methyl-4-(4-piperidyl)anilino]pyrimidin-4-yl]-(2-isopropylsulfonylphenyl)amine

> <PUBCHEM_IUPAC_INCHI>
InChI=1S/C28H36ClN5O3S/c1-17(2)37-25-15-21(20-10-12-30-13-11-20)19(5)14-24(25)33-28-31-16-22(29)27(34-28)32-23-8-6-7-9-26(23)38(35,36)18(3)4/h6-9,14-18,20,30H,10-13H2,1-5H3,(H2,31,32,33,34)

> <PUBCHEM_IUPAC_INCHIKEY>
VERWOWGGCGHDQE-UHFFFAOYSA-N

> <PUBCHEM_XLOGP3_AA>
6.4

> <PUBCHEM_EXACT_MASS>
557.2227389

> <PUBCHEM_MOLECULAR_FORMULA>
C28H36ClN5O3S

> <PUBCHEM_MOLECULAR_WEIGHT>
558.1

> <PUBCHEM_OPENEYE_CAN_SMILES>
CC1=CC(=C(C=C1C2CCNCC2)OC(C)C)NC3=NC=C(C(=N3)NC4=CC=CC=C4S(=O)(=O)C(C)C)Cl

> <PUBCHEM_OPENEYE_ISO_SMILES>
CC1=CC(=C(C=C1C2CCNCC2)OC(C)C)NC3=NC=C(C(=N3)NC4=CC=CC=C4S(=O)(=O)C(C)C)Cl

> <PUBCHEM_CACTVS_TPSA>
114

> <PUBCHEM_MONOISOTOPIC_WEIGHT>
557.2227389

> <PUBCHEM_TOTAL_CHARGE>
0

> <PUBCHEM_HEAVY_ATOM_COUNT>
38

> <PUBCHEM_ATOM_DEF_STEREO_COUNT>
0

> <PUBCHEM_ATOM_UDEF_STEREO_COUNT>
0

> <PUBCHEM_BOND_DEF_STEREO_COUNT>
0

> <PUBCHEM_BOND_UDEF_STEREO_COUNT>
0

> <PUBCHEM_ISOTOPIC_ATOM_COUNT>
0

> <PUBCHEM_COMPONENT_COUNT>
1

> <PUBCHEM_CACTVS_TAUTO_COUNT>
-1

> <PUBCHEM_COORDINATE_TYPE>
1
5
255

> <PUBCHEM_BONDANNOTATIONS>
10  25  8
10  38  8
16  17  8
16  18  8
17  20  8
18  19  8
19  21  8
20  21  8
26  29  8
26  32  8
29  34  8
32  35  8
33  37  8
34  36  8
35  36  8
37  38  8
9  25  8
9  33  8

$$$$
11617559
  -OEChem-11282412102D

 49 51  0     0  0  0  0  0  0999 V2000
    4.5981    0.8100    0.0000 O   0  0  0  0  0  0  0  0  0  0  0  0
    2.8660   -0.1900    0.0000 O   0  0  0  0  0  0  0  0  0  0  0  0
    5.4641    5.3100    0.0000 O   0  0  0  0  0  0  0  0  0  0  0  0
    6.3301   -5.1900    0.0000 N   0  0  0  0  0  0  0  0  0  0  0  0
    7.1962   -3.6900    0.0000 N   0  0  0  0  0  0  0  0  0  0  0  0
    4.5981   -5.1900    0.0000 N   0  0  0  0  0  0  0  0  0  0  0  0
    8.0622   -5.1900    0.0000 N   0  0  0  0  0  0  0  0  0  0  0  0
    4.5981   -2.1900    0.0000 C   0  0  0  0  0  0  0  0  0  0  0  0
    4.5981   -3.1900    0.0000 C   0  0  0  0  0  0  0  0  0  0  0  0
    3.7320   -1.6900    0.0000 C   0  0  0  0  0  0  0  0  0  0  0  0
    5.4641   -3.6900    0.0000 C   0  0  0  0  0  0  0  0  0  0  0  0
    4.5981   -0.1900    0.0000 C   0  0  0  0  0  0  0  0  0  0  0  0
    5.4641   -1.6900    0.0000 C   0  0  0  0  0  0  0  0  0  0  0  0
    3.7320   -0.6900    0.0000 C   0  0  0  0  0  0  0  0  0  0  0  0
    5.4641   -0.6900    0.0000 C   0  0  0  0  0  0  0  0  0  0  0  0
    5.4641    1.3100    0.0000 C   0  0  0  0  0  0  0  0  0  0  0  0
    5.4641    2.3100    0.0000 C   0  0  0  0  0  0  0  0  0  0  0  0
    5.4641   -4.6900    0.0000 C   0  0  0  0  0  0  0  0  0  0  0  0
    6.3301   -3.1900    0.0000 C   0  0  0  0  0  0  0  0  0  0  0  0
    4.5981    2.8100    0.0000 C   0  0  0  0  0  0  0  0  0  0  0  0
    6.3301    2.8100    0.0000 C   0  0  0  0  0  0  0  0  0  0  0  0
    4.5981    3.8100    0.0000 C   0  0  0  0  0  0  0  0  0  0  0  0
    6.3301    3.8100    0.0000 C   0  0  0  0  0  0  0  0  0  0  0  0
    5.4641    4.3100    0.0000 C   0  0  0  0  0  0  0  0  0  0  0  0
    7.1962   -4.6900    0.0000 C   0  0  0  0  0  0  0  0  0  0  0  0
    2.0000   -0.6900    0.0000 C   0  0  0  0  0  0  0  0  0  0  0  0
    6.3301    5.8100    0.0000 C   0  0  0  0  0  0  0  0  0  0  0  0
    3.9875   -3.0823    0.0000 H   0  0  0  0  0  0  0  0  0  0  0  0
    4.3860   -3.7726    0.0000 H   0  0  0  0  0  0  0  0  0  0  0  0
    3.1951   -2.0000    0.0000 H   0  0  0  0  0  0  0  0  0  0  0  0
    6.0010   -2.0000    0.0000 H   0  0  0  0  0  0  0  0  0  0  0  0
    6.0010   -0.3800    0.0000 H   0  0  0  0  0  0  0  0  0  0  0  0
    5.6762    0.7274    0.0000 H   0  0  0  0  0  0  0  0  0  0  0  0
    6.0747    1.4177    0.0000 H   0  0  0  0  0  0  0  0  0  0  0  0
    6.3301   -2.5700    0.0000 H   0  0  0  0  0  0  0  0  0  0  0  0
    4.0611    2.5000    0.0000 H   0  0  0  0  0  0  0  0  0  0  0  0
    6.8671    2.5000    0.0000 H   0  0  0  0  0  0  0  0  0  0  0  0
    4.0611    4.1200    0.0000 H   0  0  0  0  0  0  0  0  0  0  0  0
    6.8671    4.1200    0.0000 H   0  0  0  0  0  0  0  0  0  0  0  0
    4.5981   -5.8100    0.0000 H   0  0  0  0  0  0  0  0  0  0  0  0
    4.0611   -4.8800    0.0000 H   0  0  0  0  0  0  0  0  0  0  0  0
    1.6900   -0.1531    0.0000 H   0  0  0  0  0  0  0  0  0  0  0  0
    1.4631   -1.0000    0.0000 H   0  0  0  0  0  0  0  0  0  0  0  0
    2.3100   -1.2269    0.0000 H   0  0  0  0  0  0  0  0  0  0  0  0
    8.5991   -4.8800    0.0000 H   0  0  0  0  0  0  0  0  0  0  0  0
    8.0622   -5.8100    0.0000 H   0  0  0  0  0  0  0  0  0  0  0  0
    6.6401    5.2731    0.0000 H   0  0  0  0  0  0  0  0  0  0  0  0
    6.8671    6.1200    0.0000 H   0  0  0  0  0  0  0  0  0  0  0  0
    6.0201    6.3469    0.0000 H   0  0  0  0  0  0  0  0  0  0  0  0
  1 12  1  0  0  0  0
  1 16  1  0  0  0  0
  2 14  1  0  0  0  0
  2 26  1  0  0  0  0
  3 24  1  0  0  0  0
  3 27  1  0  0  0  0
  4 18  2  0  0  0  0
  4 25  1  0  0  0  0
  5 19  1  0  0  0  0
  5 25  2  0  0  0  0
  6 18  1  0  0  0  0
  6 40  1  0  0  0  0
  6 41  1  0  0  0  0
  7 25  1  0  0  0  0
  7 45  1  0  0  0  0
  7 46  1  0  0  0  0
  8  9  1  0  0  0  0
  8 10  2  0  0  0  0
  8 13  1  0  0  0  0
  9 11  1  0  0  0  0
  9 28  1  0  0  0  0
  9 29  1  0  0  0  0
 10 14  1  0  0  0  0
 10 30  1  0  0  0  0
 11 18  1  0  0  0  0
 11 19  2  0  0  0  0
 12 14  2  0  0  0  0
 12 15  1  0  0  0  0
 13 15  2  0  0  0  0
 13 31  1  0  0  0  0
 15 32  1  0  0  0  0
 16 17  1  0  0  0  0
 16 33  1  0  0  0  0
 16 34  1  0  0  0  0
 17 20  2  0  0  0  0
 17 21  1  0  0  0  0
 19 35  1  0  0  0  0
 20 22  1  0  0  0  0
 20 36  1  0  0  0  0
 21 23  2  0  0  0  0
 21 37  1  0  0  0  0
 22 24  2  0  0  0  0
 22 38  1  0  0  0  0
 23 24  1  0  0  0  0
 23 39  1  0  0  0  0
 26 42  1  0  0  0  0
 26 43  1  0  0  0  0
 26 44  1  0  0  0  0
 27 47  1  0  0  0  0
 27 48  1  0  0  0  0
 27 49  1  0  0  0  0
M  END
> <PUBCHEM_COMPOUND_CID>
11617559

> <PUBCHEM_COMPOUND_CANONICALIZED>
1

> <PUBCHEM_CACTVS_COMPLEXITY>
433

> <PUBCHEM_CACTVS_HBOND_ACCEPTOR>
7

> <PUBCHEM_CACTVS_HBOND_DONOR>
2

> <PUBCHEM_CACTVS_ROTATABLE_BOND>
7

> <PUBCHEM_CACTVS_SUBSKEYS>
AAADceB7sAAAAAAAAAAAAAAAAAAAAAAAAAA8YIAAAAAAAAAB0AAAHgAQAAAADAThmgY/tpZIFACgAjJnZACCiCkxIKAJ2CAuzJiNLqLE+VqGPCqswBNK6CeQ4PwOIAABAAAAQABAAAIAAACAAAAAAAAAAA==

> <PUBCHEM_IUPAC_OPENEYE_NAME>
5-[[3-methoxy-4-[(4-methoxyphenyl)methoxy]phenyl]methyl]pyrimidine-2,4-diamine

> <PUBCHEM_IUPAC_CAS_NAME>
5-[[3-methoxy-4-[(4-methoxyphenyl)methoxy]phenyl]methyl]pyrimidine-2,4-diamine

> <PUBCHEM_IUPAC_NAME_MARKUP>
5-[[3-methoxy-4-[(4-methoxyphenyl)methoxy]phenyl]methyl]pyrimidine-2,4-diamine

> <PUBCHEM_IUPAC_NAME>
5-[[3-methoxy-4-[(4-methoxyphenyl)methoxy]phenyl]methyl]pyrimidine-2,4-diamine

> <PUBCHEM_IUPAC_SYSTEMATIC_NAME>
5-[[3-methoxy-4-[(4-methoxyphenyl)methoxy]phenyl]methyl]pyrimidine-2,4-diamine

> <PUBCHEM_IUPAC_TRADITIONAL_NAME>
[2-amino-5-(3-methoxy-4-p-anisyloxy-benzyl)pyrimidin-4-yl]amine

> <PUBCHEM_IUPAC_INCHI>
InChI=1S/C20H22N4O3/c1-25-16-6-3-13(4-7-16)12-27-17-8-5-14(10-18(17)26-2)9-15-11-23-20(22)24-19(15)21/h3-8,10-11H,9,12H2,1-2H3,(H4,21,22,23,24)

> <PUBCHEM_IUPAC_INCHIKEY>
MYQAUKPBNJWPIE-UHFFFAOYSA-N

> <PUBCHEM_XLOGP3>
2.6

> <PUBCHEM_EXACT_MASS>
366.16919058

> <PUBCHEM_MOLECULAR_FORMULA>
C20H22N4O3

> <PUBCHEM_MOLECULAR_WEIGHT>
366.4

> <PUBCHEM_OPENEYE_CAN_SMILES>
COC1=CC=C(C=C1)COC2=C(C=C(C=C2)CC3=CN=C(N=C3N)N)OC

> <PUBCHEM_OPENEYE_ISO_SMILES>
COC1=CC=C(C=C1)COC2=C(C=C(C=C2)CC3=CN=C(N=C3N)N)OC

> <PUBCHEM_CACTVS_TPSA>
106

> <PUBCHEM_MONOISOTOPIC_WEIGHT>
366.16919058

> <PUBCHEM_TOTAL_CHARGE>
0

> <PUBCHEM_HEAVY_ATOM_COUNT>
27

> <PUBCHEM_ATOM_DEF_STEREO_COUNT>
0

> <PUBCHEM_ATOM_UDEF_STEREO_COUNT>
0

> <PUBCHEM_BOND_DEF_STEREO_COUNT>
0

> <PUBCHEM_BOND_UDEF_STEREO_COUNT>
0

> <PUBCHEM_ISOTOPIC_ATOM_COUNT>
0

> <PUBCHEM_COMPONENT_COUNT>
1

> <PUBCHEM_CACTVS_TAUTO_COUNT>
-1

> <PUBCHEM_COORDINATE_TYPE>
1
5
255

> <PUBCHEM_BONDANNOTATIONS>
10  14  8
11  18  8
11  19  8
12  14  8
12  15  8
13  15  8
17  20  8
17  21  8
20  22  8
21  23  8
22  24  8
23  24  8
4  18  8
4  25  8
5  19  8
5  25  8
8  10  8
8  13  8

$$$$
25031915
  -OEChem-11282412102D

 58 62  0     0  0  0  0  0  0999 V2000
    3.8660   -1.9119    0.0000 O   0  0  0  0  0  0  0  0  0  0  0  0
    3.8660    0.0881    0.0000 O   0  0  0  0  0  0  0  0  0  0  0  0
    7.3465    1.1227    0.0000 O   0  0  0  0  0  0  0  0  0  0  0  0
   11.6971    1.6700    0.0000 O   0  0  0  0  0  0  0  0  0  0  0  0
    3.0000   -4.4119    0.0000 N   0  0  0  0  0  0  0  0  0  0  0  0
    7.3580   -1.9466    0.0000 N   0  0  0  0  0  0  0  0  0  0  0  0
   12.5632    3.1700    0.0000 N   0  0  0  0  0  0  0  0  0  0  0  0
    3.0000   -3.4119    0.0000 C   0  0  0  0  0  0  0  0  0  0  0  0
    2.5000   -2.5459    0.0000 C   0  0  0  0  0  0  0  0  0  0  0  0
    2.0000   -3.4119    0.0000 C   0  0  0  0  0  0  0  0  0  0  0  0
    3.8660   -2.9119    0.0000 C   0  0  0  0  0  0  0  0  0  0  0  0
    4.7320   -1.4119    0.0000 C   0  0  0  0  0  0  0  0  0  0  0  0
    4.7320   -0.4119    0.0000 C   0  0  0  0  0  0  0  0  0  0  0  0
    5.5981   -1.9119    0.0000 C   0  0  0  0  0  0  0  0  0  0  0  0
    6.4641   -1.4119    0.0000 C   0  0  0  0  0  0  0  0  0  0  0  0
    5.5981    0.0881    0.0000 C   0  0  0  0  0  0  0  0  0  0  0  0
    6.4641   -0.4119    0.0000 C   0  0  0  0  0  0  0  0  0  0  0  0
    7.3580    0.1227    0.0000 C   0  0  0  0  0  0  0  0  0  0  0  0
    8.2641   -0.3911    0.0000 C   0  0  0  0  0  0  0  0  0  0  0  0
    8.2641   -1.4327    0.0000 C   0  0  0  0  0  0  0  0  0  0  0  0
    3.8660    1.0881    0.0000 C   0  0  0  0  0  0  0  0  0  0  0  0
    8.2067    1.6326    0.0000 C   0  0  0  0  0  0  0  0  0  0  0  0
    9.9270    2.6526    0.0000 C   0  0  0  0  0  0  0  0  0  0  0  0
    9.0553    3.1426    0.0000 C   0  0  0  0  0  0  0  0  0  0  0  0
    8.1951    2.6326    0.0000 C   0  0  0  0  0  0  0  0  0  0  0  0
   10.8311    3.1700    0.0000 C   0  0  0  0  0  0  0  0  0  0  0  0
    9.0784    1.1427    0.0000 C   0  0  0  0  0  0  0  0  0  0  0  0
    9.9386    1.6527    0.0000 C   0  0  0  0  0  0  0  0  0  0  0  0
    9.0272    4.1838    0.0000 C   0  0  0  0  0  0  0  0  0  0  0  0
   10.8271    4.2116    0.0000 C   0  0  0  0  0  0  0  0  0  0  0  0
    9.9191    4.7219    0.0000 C   0  0  0  0  0  0  0  0  0  0  0  0
   11.6971    2.6700    0.0000 C   0  0  0  0  0  0  0  0  0  0  0  0
   13.4292    2.6700    0.0000 C   0  0  0  0  0  0  0  0  0  0  0  0
    2.9750   -2.1474    0.0000 H   0  0  0  0  0  0  0  0  0  0  0  0
    2.0250   -2.1474    0.0000 H   0  0  0  0  0  0  0  0  0  0  0  0
    1.4174   -3.1999    0.0000 H   0  0  0  0  0  0  0  0  0  0  0  0
    1.8923   -4.0225    0.0000 H   0  0  0  0  0  0  0  0  0  0  0  0
    4.0781   -3.4945    0.0000 H   0  0  0  0  0  0  0  0  0  0  0  0
    4.4766   -2.8043    0.0000 H   0  0  0  0  0  0  0  0  0  0  0  0
    2.4631   -4.7219    0.0000 H   0  0  0  0  0  0  0  0  0  0  0  0
    3.5369   -4.7219    0.0000 H   0  0  0  0  0  0  0  0  0  0  0  0
    5.5981   -2.5319    0.0000 H   0  0  0  0  0  0  0  0  0  0  0  0
    5.5981    0.7081    0.0000 H   0  0  0  0  0  0  0  0  0  0  0  0
    8.7998   -0.0790    0.0000 H   0  0  0  0  0  0  0  0  0  0  0  0
    8.7998   -1.7448    0.0000 H   0  0  0  0  0  0  0  0  0  0  0  0
    4.4860    1.0881    0.0000 H   0  0  0  0  0  0  0  0  0  0  0  0
    3.8660    1.7081    0.0000 H   0  0  0  0  0  0  0  0  0  0  0  0
    3.2460    1.0881    0.0000 H   0  0  0  0  0  0  0  0  0  0  0  0
    7.6546    2.9364    0.0000 H   0  0  0  0  0  0  0  0  0  0  0  0
    9.0856    0.5227    0.0000 H   0  0  0  0  0  0  0  0  0  0  0  0
   10.4791    1.3489    0.0000 H   0  0  0  0  0  0  0  0  0  0  0  0
    8.4832    4.4813    0.0000 H   0  0  0  0  0  0  0  0  0  0  0  0
   11.3616    4.5257    0.0000 H   0  0  0  0  0  0  0  0  0  0  0  0
    9.9095    5.3418    0.0000 H   0  0  0  0  0  0  0  0  0  0  0  0
   12.5632    3.7900    0.0000 H   0  0  0  0  0  0  0  0  0  0  0  0
   13.1192    2.1330    0.0000 H   0  0  0  0  0  0  0  0  0  0  0  0
   13.9661    2.3600    0.0000 H   0  0  0  0  0  0  0  0  0  0  0  0
   13.7392    3.2069    0.0000 H   0  0  0  0  0  0  0  0  0  0  0  0
  1 11  1  0  0  0  0
  1 12  1  0  0  0  0
  2 13  1  0  0  0  0
  2 21  1  0  0  0  0
  3 18  1  0  0  0  0
  3 22  1  0  0  0  0
  4 32  2  0  0  0  0
  5  8  1  0  0  0  0
  5 40  1  0  0  0  0
  5 41  1  0  0  0  0
  6 15  2  0  0  0  0
  6 20  1  0  0  0  0
  7 32  1  0  0  0  0
  7 33  1  0  0  0  0
  7 55  1  0  0  0  0
  8  9  1  0  0  0  0
  8 10  1  0  0  0  0
  8 11  1  0  0  0  0
  9 10  1  0  0  0  0
  9 34  1  0  0  0  0
  9 35  1  0  0  0  0
 10 36  1  0  0  0  0
 10 37  1  0  0  0  0
 11 38  1  0  0  0  0
 11 39  1  0  0  0  0
 12 13  1  0  0  0  0
 12 14  2  0  0  0  0
 13 16  2  0  0  0  0
 14 15  1  0  0  0  0
 14 42  1  0  0  0  0
 15 17  1  0  0  0  0
 16 17  1  0  0  0  0
 16 43  1  0  0  0  0
 17 18  2  0  0  0  0
 18 19  1  0  0  0  0
 19 20  2  0  0  0  0
 19 44  1  0  0  0  0
 20 45  1  0  0  0  0
 21 46  1  0  0  0  0
 21 47  1  0  0  0  0
 21 48  1  0  0  0  0
 22 25  2  0  0  0  0
 22 27  1  0  0  0  0
 23 24  2  0  0  0  0
 23 26  1  0  0  0  0
 23 28  1  0  0  0  0
 24 25  1  0  0  0  0
 24 29  1  0  0  0  0
 25 49  1  0  0  0  0
 26 30  2  0  0  0  0
 26 32  1  0  0  0  0
 27 28  2  0  0  0  0
 27 50  1  0  0  0  0
 28 51  1  0  0  0  0
 29 31  2  0  0  0  0
 29 52  1  0  0  0  0
 30 31  1  0  0  0  0
 30 53  1  0  0  0  0
 31 54  1  0  0  0  0
 33 56  1  0  0  0  0
 33 57  1  0  0  0  0
 33 58  1  0  0  0  0
M  END
> <PUBCHEM_COMPOUND_CID>
25031915

> <PUBCHEM_COMPOUND_CANONICALIZED>
1

> <PUBCHEM_CACTVS_COMPLEXITY>
686

> <PUBCHEM_CACTVS_HBOND_ACCEPTOR>
6

> <PUBCHEM_CACTVS_HBOND_DONOR>
2

> <PUBCHEM_CACTVS_ROTATABLE_BOND>
7

> <PUBCHEM_CACTVS_SUBSKEYS>
AAADceB7OAAAAAAAAAAAAAAAGAAAAAAAAAA8YMEAAAAAAADx9AAAHgAQAAAADIzhngY+xvLIFACoAzV3VACCiCA1IiAI2KE+7NgPJvLEtZuHOSrm0hnK6Yf4+P+OoEADAgASQABAgAYEACSAAAAAAAAAAA==

> <PUBCHEM_IUPAC_OPENEYE_NAME>
6-[[7-[(1-aminocyclopropyl)methoxy]-6-methoxy-4-quinolyl]oxy]-N-methyl-naphthalene-1-carboxamide

> <PUBCHEM_IUPAC_CAS_NAME>
6-[[7-[(1-aminocyclopropyl)methoxy]-6-methoxy-4-quinolinyl]oxy]-N-methyl-1-naphthalenecarboxamide

> <PUBCHEM_IUPAC_NAME_MARKUP>
6-[7-[(1-aminocyclopropyl)methoxy]-6-methoxyquinolin-4-yl]oxy-<I>N</I>-methylnaphthalene-1-carboxamide

> <PUBCHEM_IUPAC_NAME>
6-[7-[(1-aminocyclopropyl)methoxy]-6-methoxyquinolin-4-yl]oxy-N-methylnaphthalene-1-carboxamide

> <PUBCHEM_IUPAC_SYSTEMATIC_NAME>
6-[7-[(1-azanylcyclopropyl)methoxy]-6-methoxy-quinolin-4-yl]oxy-N-methyl-naphthalene-1-carboxamide

> <PUBCHEM_IUPAC_TRADITIONAL_NAME>
6-[[7-[(1-aminocyclopropyl)methoxy]-6-methoxy-4-quinolyl]oxy]-N-methyl-1-naphthamide

> <PUBCHEM_IUPAC_INCHI>
InChI=1S/C26H25N3O4/c1-28-25(30)19-5-3-4-16-12-17(6-7-18(16)19)33-22-8-11-29-21-14-24(23(31-2)13-20(21)22)32-15-26(27)9-10-26/h3-8,11-14H,9-10,15,27H2,1-2H3,(H,28,30)

> <PUBCHEM_IUPAC_INCHIKEY>
CUDVHEFYRIWYQD-UHFFFAOYSA-N

> <PUBCHEM_XLOGP3_AA>
3.6

> <PUBCHEM_EXACT_MASS>
443.18450629

> <PUBCHEM_MOLECULAR_FORMULA>
C26H25N3O4

> <PUBCHEM_MOLECULAR_WEIGHT>
443.5

> <PUBCHEM_OPENEYE_CAN_SMILES>
CNC(=O)C1=CC=CC2=C1C=CC(=C2)OC3=C4C=C(C(=CC4=NC=C3)OCC5(CC5)N)OC

> <PUBCHEM_OPENEYE_ISO_SMILES>
CNC(=O)C1=CC=CC2=C1C=CC(=C2)OC3=C4C=C(C(=CC4=NC=C3)OCC5(CC5)N)OC

> <PUBCHEM_CACTVS_TPSA>
95.7

> <PUBCHEM_MONOISOTOPIC_WEIGHT>
443.18450629

> <PUBCHEM_TOTAL_CHARGE>
0

> <PUBCHEM_HEAVY_ATOM_COUNT>
33

> <PUBCHEM_ATOM_DEF_STEREO_COUNT>
0

> <PUBCHEM_ATOM_UDEF_STEREO_COUNT>
0

> <PUBCHEM_BOND_DEF_STEREO_COUNT>
0

> <PUBCHEM_BOND_UDEF_STEREO_COUNT>
0

> <PUBCHEM_ISOTOPIC_ATOM_COUNT>
0

> <PUBCHEM_COMPONENT_COUNT>
1

> <PUBCHEM_CACTVS_TAUTO_COUNT>
-1

> <PUBCHEM_COORDINATE_TYPE>
1
5
255

> <PUBCHEM_BONDANNOTATIONS>
12  13  8
12  14  8
13  16  8
14  15  8
15  17  8
16  17  8
17  18  8
18  19  8
19  20  8
22  25  8
22  27  8
23  24  8
23  26  8
23  28  8
24  25  8
24  29  8
26  30  8
27  28  8
29  31  8
30  31  8
6  15  8
6  20  8

$$$$
49787172
  -OEChem-11282412102D

 52 56  0     1  0  0  0  0  0999 V2000
    2.0000   -3.5293    0.0000 Cl  0  0  0  0  0  0  0  0  0  0  0  0
   12.9578   -1.4751    0.0000 Cl  0  0  0  0  0  0  0  0  0  0  0  0
    9.0484   -2.3218    0.0000 O   0  0  0  0  0  0  0  0  0  0  0  0
    8.6818   -0.6290    0.0000 O   0  0  0  0  0  0  0  0  0  0  0  0
    7.8882    2.7940    0.0000 O   0  0  0  0  0  0  0  0  0  0  0  0
    7.3991   -1.7930    0.0000 N   0  0  0  0  0  0  0  0  0  0  0  0
    4.8717   -0.6687    0.0000 N   0  0  0  0  0  0  0  0  0  0  0  0
    6.6962   -1.0243    0.0000 C   0  0  2  0  0  0  0  0  0  0  0  0
    5.6808   -1.2565    0.0000 C   0  0  0  0  0  0  0  0  0  0  0  0
    5.3717   -2.2076    0.0000 C   0  0  0  0  0  0  0  0  0  0  0  0
    6.0567   -2.9923    0.0000 C   0  0  0  0  0  0  0  0  0  0  0  0
    7.0772   -2.7836    0.0000 C   0  0  0  0  0  0  0  0  0  0  0  0
    4.3717   -2.2076    0.0000 C   0  0  0  0  0  0  0  0  0  0  0  0
    4.0627   -1.2565    0.0000 C   0  0  0  0  0  0  0  0  0  0  0  0
    6.9942   -0.0697    0.0000 C   0  0  0  0  0  0  0  0  0  0  0  0
    8.3764   -1.5813    0.0000 C   0  0  0  0  0  0  0  0  0  0  0  0
    3.6868   -2.9923    0.0000 C   0  0  0  0  0  0  0  0  0  0  0  0
    3.0473   -1.0243    0.0000 C   0  0  0  0  0  0  0  0  0  0  0  0
    6.3165    0.6656    0.0000 C   0  0  0  0  0  0  0  0  0  0  0  0
    7.9698    0.1495    0.0000 C   0  0  0  0  0  0  0  0  0  0  0  0
    2.6663   -2.7836    0.0000 C   0  0  0  0  0  0  0  0  0  0  0  0
    2.3444   -1.7930    0.0000 C   0  0  0  0  0  0  0  0  0  0  0  0
    6.6145    1.6202    0.0000 C   0  0  0  0  0  0  0  0  0  0  0  0
    8.2678    1.1041    0.0000 C   0  0  0  0  0  0  0  0  0  0  0  0
    7.5902    1.8394    0.0000 C   0  0  0  0  0  0  0  0  0  0  0  0
   10.0258   -2.1102    0.0000 C   0  0  0  0  0  0  0  0  0  0  0  0
   10.6978   -2.8507    0.0000 C   0  0  0  0  0  0  0  0  0  0  0  0
   10.3311   -1.1579    0.0000 C   0  0  0  0  0  0  0  0  0  0  0  0
    7.2105    3.5293    0.0000 C   0  0  0  0  0  0  0  0  0  0  0  0
   11.6751   -2.6390    0.0000 C   0  0  0  0  0  0  0  0  0  0  0  0
   11.3085   -0.9462    0.0000 C   0  0  0  0  0  0  0  0  0  0  0  0
   11.9804   -1.6868    0.0000 C   0  0  0  0  0  0  0  0  0  0  0  0
    7.3014   -0.8895    0.0000 H   0  0  0  0  0  0  0  0  0  0  0  0
    5.5267   -3.3141    0.0000 H   0  0  0  0  0  0  0  0  0  0  0  0
    6.2830   -3.5695    0.0000 H   0  0  0  0  0  0  0  0  0  0  0  0
    7.0957   -3.4034    0.0000 H   0  0  0  0  0  0  0  0  0  0  0  0
    7.6910   -2.8715    0.0000 H   0  0  0  0  0  0  0  0  0  0  0  0
    4.8717   -0.0487    0.0000 H   0  0  0  0  0  0  0  0  0  0  0  0
    3.8852   -3.5797    0.0000 H   0  0  0  0  0  0  0  0  0  0  0  0
    2.8626   -0.4325    0.0000 H   0  0  0  0  0  0  0  0  0  0  0  0
    5.7116    0.5297    0.0000 H   0  0  0  0  0  0  0  0  0  0  0  0
    8.3900   -0.3064    0.0000 H   0  0  0  0  0  0  0  0  0  0  0  0
    1.7384   -1.6617    0.0000 H   0  0  0  0  0  0  0  0  0  0  0  0
    6.1943    2.0761    0.0000 H   0  0  0  0  0  0  0  0  0  0  0  0
    8.8728    1.2400    0.0000 H   0  0  0  0  0  0  0  0  0  0  0  0
   10.5084   -3.4411    0.0000 H   0  0  0  0  0  0  0  0  0  0  0  0
    9.9145   -0.6988    0.0000 H   0  0  0  0  0  0  0  0  0  0  0  0
    7.6664    3.9495    0.0000 H   0  0  0  0  0  0  0  0  0  0  0  0
    6.7903    3.9853    0.0000 H   0  0  0  0  0  0  0  0  0  0  0  0
    6.7546    3.1092    0.0000 H   0  0  0  0  0  0  0  0  0  0  0  0
   12.0917   -3.0982    0.0000 H   0  0  0  0  0  0  0  0  0  0  0  0
   11.4978   -0.3559    0.0000 H   0  0  0  0  0  0  0  0  0  0  0  0
  1 21  1  0  0  0  0
  2 32  1  0  0  0  0
  3 16  1  0  0  0  0
  3 26  1  0  0  0  0
  4 16  2  0  0  0  0
  5 25  1  0  0  0  0
  5 29  1  0  0  0  0
  6  8  1  0  0  0  0
  6 12  1  0  0  0  0
  6 16  1  0  0  0  0
  7  9  1  0  0  0  0
  7 14  1  0  0  0  0
  7 38  1  0  0  0  0
  8  9  1  0  0  0  0
  8 15  1  6  0  0  0
  8 33  1  0  0  0  0
  9 10  2  0  0  0  0
 10 11  1  0  0  0  0
 10 13  1  0  0  0  0
 11 12  1  0  0  0  0
 11 34  1  0  0  0  0
 11 35  1  0  0  0  0
 12 36  1  0  0  0  0
 12 37  1  0  0  0  0
 13 14  2  0  0  0  0
 13 17  1  0  0  0  0
 14 18  1  0  0  0  0
 15 19  2  0  0  0  0
 15 20  1  0  0  0  0
 17 21  2  0  0  0  0
 17 39  1  0  0  0  0
 18 22  2  0  0  0  0
 18 40  1  0  0  0  0
 19 23  1  0  0  0  0
 19 41  1  0  0  0  0
 20 24  2  0  0  0  0
 20 42  1  0  0  0  0
 21 22  1  0  0  0  0
 22 43  1  0  0  0  0
 23 25  2  0  0  0  0
 23 44  1  0  0  0  0
 24 25  1  0  0  0  0
 24 45  1  0  0  0  0
 26 27  2  0  0  0  0
 26 28  1  0  0  0  0
 27 30  1  0  0  0  0
 27 46  1  0  0  0  0
 28 31  2  0  0  0  0
 28 47  1  0  0  0  0
 29 48  1  0  0  0  0
 29 49  1  0  0  0  0
 29 50  1  0  0  0  0
 30 32  2  0  0  0  0
 30 51  1  0  0  0  0
 31 32  1  0  0  0  0
 31 52  1  0  0  0  0
M  END
> <PUBCHEM_COMPOUND_CID>
49787172

> <PUBCHEM_COMPOUND_CANONICALIZED>
1

> <PUBCHEM_CACTVS_COMPLEXITY>
651

> <PUBCHEM_CACTVS_HBOND_ACCEPTOR>
3

> <PUBCHEM_CACTVS_HBOND_DONOR>
1

> <PUBCHEM_CACTVS_ROTATABLE_BOND>
4

> <PUBCHEM_CACTVS_SUBSKEYS>
AAADceB7MAAGAAAAAAAAAAAAAAAAAWAAAAA8YMEAAAAAAFgB9AAAHgIQAAAADC7BniYyzvPJlACoAyRiXACCiCAhJyAImSA+bpgMZuLFs5ucMihk1hHI6AeQ0OMOoCBAIAACAABAQIBAAAQAAAAAAAAAAA==

> <PUBCHEM_IUPAC_OPENEYE_NAME>
(4-chlorophenyl) (1S)-6-chloro-1-(4-methoxyphenyl)-1,3,4,9-tetrahydropyrido[3,4-b]indole-2-carboxylate

> <PUBCHEM_IUPAC_CAS_NAME>
(1S)-6-chloro-1-(4-methoxyphenyl)-1,3,4,9-tetrahydropyrido[3,4-b]indole-2-carboxylic acid (4-chlorophenyl) ester

> <PUBCHEM_IUPAC_NAME_MARKUP>
(4-chlorophenyl) (1<I>S</I>)-6-chloro-1-(4-methoxyphenyl)-1,3,4,9-tetrahydropyrido[3,4-b]indole-2-carboxylate

> <PUBCHEM_IUPAC_NAME>
(4-chlorophenyl) (1S)-6-chloro-1-(4-methoxyphenyl)-1,3,4,9-tetrahydropyrido[3,4-b]indole-2-carboxylate

> <PUBCHEM_IUPAC_SYSTEMATIC_NAME>
(4-chlorophenyl) (1S)-6-chloranyl-1-(4-methoxyphenyl)-1,3,4,9-tetrahydropyrido[3,4-b]indole-2-carboxylate

> <PUBCHEM_IUPAC_TRADITIONAL_NAME>
(1S)-6-chloro-1-(4-methoxyphenyl)-1,3,4,9-tetrahydro-beta-carboline-2-carboxylic acid (4-chlorophenyl) ester

> <PUBCHEM_IUPAC_INCHI>
InChI=1S/C25H20Cl2N2O3/c1-31-18-7-2-15(3-8-18)24-23-20(21-14-17(27)6-11-22(21)28-23)12-13-29(24)25(30)32-19-9-4-16(26)5-10-19/h2-11,14,24,28H,12-13H2,1H3/t24-/m0/s1

> <PUBCHEM_IUPAC_INCHIKEY>
SRSHBZRURUNOSM-DEOSSOPVSA-N

> <PUBCHEM_XLOGP3_AA>
6.3

> <PUBCHEM_EXACT_MASS>
466.0850979

> <PUBCHEM_MOLECULAR_FORMULA>
C25H20Cl2N2O3

> <PUBCHEM_MOLECULAR_WEIGHT>
467.3

> <PUBCHEM_OPENEYE_CAN_SMILES>
COC1=CC=C(C=C1)C2C3=C(CCN2C(=O)OC4=CC=C(C=C4)Cl)C5=C(N3)C=CC(=C5)Cl

> <PUBCHEM_OPENEYE_ISO_SMILES>
COC1=CC=C(C=C1)[C@H]2C3=C(CCN2C(=O)OC4=CC=C(C=C4)Cl)C5=C(N3)C=CC(=C5)Cl

> <PUBCHEM_CACTVS_TPSA>
54.6

> <PUBCHEM_MONOISOTOPIC_WEIGHT>
466.0850979

> <PUBCHEM_TOTAL_CHARGE>
0

> <PUBCHEM_HEAVY_ATOM_COUNT>
32

> <PUBCHEM_ATOM_DEF_STEREO_COUNT>
1

> <PUBCHEM_ATOM_UDEF_STEREO_COUNT>
0

> <PUBCHEM_BOND_DEF_STEREO_COUNT>
0

> <PUBCHEM_BOND_UDEF_STEREO_COUNT>
0

> <PUBCHEM_ISOTOPIC_ATOM_COUNT>
0

> <PUBCHEM_COMPONENT_COUNT>
1

> <PUBCHEM_CACTVS_TAUTO_COUNT>
-1

> <PUBCHEM_COORDINATE_TYPE>
1
5
255

> <PUBCHEM_BONDANNOTATIONS>
10  13  8
13  14  8
13  17  8
14  18  8
15  19  8
15  20  8
17  21  8
18  22  8
19  23  8
20  24  8
21  22  8
23  25  8
24  25  8
26  27  8
26  28  8
27  30  8
28  31  8
30  32  8
31  32  8
7  14  8
7  9  8
8  15  6
9  10  8

$$$$
11190538
  -OEChem-11282412102D

 52 56  0     1  0  0  0  0  0999 V2000
    2.0000   -3.5293    0.0000 Cl  0  0  0  0  0  0  0  0  0  0  0  0
   12.9578   -1.4751    0.0000 Cl  0  0  0  0  0  0  0  0  0  0  0  0
    9.0484   -2.3218    0.0000 O   0  0  0  0  0  0  0  0  0  0  0  0
    8.6818   -0.6290    0.0000 O   0  0  0  0  0  0  0  0  0  0  0  0
    7.8882    2.7940    0.0000 O   0  0  0  0  0  0  0  0  0  0  0  0
    7.3991   -1.7930    0.0000 N   0  0  0  0  0  0  0  0  0  0  0  0
    4.8717   -0.6687    0.0000 N   0  0  0  0  0  0  0  0  0  0  0  0
    6.6962   -1.0243    0.0000 C   0  0  3  0  0  0  0  0  0  0  0  0
    5.6808   -1.2565    0.0000 C   0  0  0  0  0  0  0  0  0  0  0  0
    5.3717   -2.2076    0.0000 C   0  0  0  0  0  0  0  0  0  0  0  0
    6.0567   -2.9923    0.0000 C   0  0  0  0  0  0  0  0  0  0  0  0
    7.0772   -2.7836    0.0000 C   0  0  0  0  0  0  0  0  0  0  0  0
    4.3717   -2.2076    0.0000 C   0  0  0  0  0  0  0  0  0  0  0  0
    4.0627   -1.2565    0.0000 C   0  0  0  0  0  0  0  0  0  0  0  0
    6.9942   -0.0697    0.0000 C   0  0  0  0  0  0  0  0  0  0  0  0
    8.3764   -1.5813    0.0000 C   0  0  0  0  0  0  0  0  0  0  0  0
    3.6868   -2.9923    0.0000 C   0  0  0  0  0  0  0  0  0  0  0  0
    3.0473   -1.0243    0.0000 C   0  0  0  0  0  0  0  0  0  0  0  0
    6.3165    0.6656    0.0000 C   0  0  0  0  0  0  0  0  0  0  0  0
    7.9698    0.1495    0.0000 C   0  0  0  0  0  0  0  0  0  0  0  0
    2.6663   -2.7836    0.0000 C   0  0  0  0  0  0  0  0  0  0  0  0
    2.3444   -1.7930    0.0000 C   0  0  0  0  0  0  0  0  0  0  0  0
    6.6145    1.6202    0.0000 C   0  0  0  0  0  0  0  0  0  0  0  0
    8.2678    1.1041    0.0000 C   0  0  0  0  0  0  0  0  0  0  0  0
    7.5902    1.8394    0.0000 C   0  0  0  0  0  0  0  0  0  0  0  0
   10.0258   -2.1102    0.0000 C   0  0  0  0  0  0  0  0  0  0  0  0
   10.6978   -2.8507    0.0000 C   0  0  0  0  0  0  0  0  0  0  0  0
   10.3311   -1.1579    0.0000 C   0  0  0  0  0  0  0  0  0  0  0  0
    7.2105    3.5293    0.0000 C   0  0  0  0  0  0  0  0  0  0  0  0
   11.6751   -2.6390    0.0000 C   0  0  0  0  0  0  0  0  0  0  0  0
   11.3085   -0.9462    0.0000 C   0  0  0  0  0  0  0  0  0  0  0  0
   11.9804   -1.6868    0.0000 C   0  0  0  0  0  0  0  0  0  0  0  0
    7.3014   -0.8895    0.0000 H   0  0  0  0  0  0  0  0  0  0  0  0
    5.5267   -3.3141    0.0000 H   0  0  0  0  0  0  0  0  0  0  0  0
    6.2830   -3.5695    0.0000 H   0  0  0  0  0  0  0  0  0  0  0  0
    7.0957   -3.4034    0.0000 H   0  0  0  0  0  0  0  0  0  0  0  0
    7.6910   -2.8715    0.0000 H   0  0  0  0  0  0  0  0  0  0  0  0
    4.8717   -0.0487    0.0000 H   0  0  0  0  0  0  0  0  0  0  0  0
    3.8852   -3.5797    0.0000 H   0  0  0  0  0  0  0  0  0  0  0  0
    2.8626   -0.4325    0.0000 H   0  0  0  0  0  0  0  0  0  0  0  0
    5.7116    0.5297    0.0000 H   0  0  0  0  0  0  0  0  0  0  0  0
    8.3900   -0.3064    0.0000 H   0  0  0  0  0  0  0  0  0  0  0  0
    1.7384   -1.6617    0.0000 H   0  0  0  0  0  0  0  0  0  0  0  0
    6.1943    2.0761    0.0000 H   0  0  0  0  0  0  0  0  0  0  0  0
    8.8728    1.2400    0.0000 H   0  0  0  0  0  0  0  0  0  0  0  0
   10.5084   -3.4411    0.0000 H   0  0  0  0  0  0  0  0  0  0  0  0
    9.9145   -0.6988    0.0000 H   0  0  0  0  0  0  0  0  0  0  0  0
    7.6664    3.9495    0.0000 H   0  0  0  0  0  0  0  0  0  0  0  0
    6.7903    3.9853    0.0000 H   0  0  0  0  0  0  0  0  0  0  0  0
    6.7546    3.1092    0.0000 H   0  0  0  0  0  0  0  0  0  0  0  0
   12.0917   -3.0982    0.0000 H   0  0  0  0  0  0  0  0  0  0  0  0
   11.4978   -0.3559    0.0000 H   0  0  0  0  0  0  0  0  0  0  0  0
  1 21  1  0  0  0  0
  2 32  1  0  0  0  0
  3 16  1  0  0  0  0
  3 26  1  0  0  0  0
  4 16  2  0  0  0  0
  5 25  1  0  0  0  0
  5 29  1  0  0  0  0
  6  8  1  0  0  0  0
  6 12  1  0  0  0  0
  6 16  1  0  0  0  0
  7  9  1  0  0  0  0
  7 14  1  0  0  0  0
  7 38  1  0  0  0  0
  8  9  1  0  0  0  0
  8 15  1  0  0  0  0
  8 33  1  0  0  0  0
  9 10  2  0  0  0  0
 10 11  1  0  0  0  0
 10 13  1  0  0  0  0
 11 12  1  0  0  0  0
 11 34  1  0  0  0  0
 11 35  1  0  0  0  0
 12 36  1  0  0  0  0
 12 37  1  0  0  0  0
 13 14  2  0  0  0  0
 13 17  1  0  0  0  0
 14 18  1  0  0  0  0
 15 19  2  0  0  0  0
 15 20  1  0  0  0  0
 17 21  2  0  0  0  0
 17 39  1  0  0  0  0
 18 22  2  0  0  0  0
 18 40  1  0  0  0  0
 19 23  1  0  0  0  0
 19 41  1  0  0  0  0
 20 24  2  0  0  0  0
 20 42  1  0  0  0  0
 21 22  1  0  0  0  0
 22 43  1  0  0  0  0
 23 25  2  0  0  0  0
 23 44  1  0  0  0  0
 24 25  1  0  0  0  0
 24 45  1  0  0  0  0
 26 27  2  0  0  0  0
 26 28  1  0  0  0  0
 27 30  1  0  0  0  0
 27 46  1  0  0  0  0
 28 31  2  0  0  0  0
 28 47  1  0  0  0  0
 29 48  1  0  0  0  0
 29 49  1  0  0  0  0
 29 50  1  0  0  0  0
 30 32  2  0  0  0  0
 30 51  1  0  0  0  0
 31 32  1  0  0  0  0
 31 52  1  0  0  0  0
M  END
> <PUBCHEM_COMPOUND_CID>
11190538

> <PUBCHEM_COMPOUND_CANONICALIZED>
1

> <PUBCHEM_CACTVS_COMPLEXITY>
651

> <PUBCHEM_CACTVS_HBOND_ACCEPTOR>
3

> <PUBCHEM_CACTVS_HBOND_DONOR>
1

> <PUBCHEM_CACTVS_ROTATABLE_BOND>
4

> <PUBCHEM_CACTVS_SUBSKEYS>
AAADceB7MAAGAAAAAAAAAAAAAAAAAWAAAAA8YMEAAAAAAFgB9AAAHgIQAAAADC7BniYyzvPJlACoAyRiXACCiCAhJyAImSA+bpgMZuLFs5ucMihk1hHI6AeQ0OMOoCBAIAACAABAQIBAAAQAAAAAAAAAAA==

> <PUBCHEM_IUPAC_OPENEYE_NAME>
(4-chlorophenyl) 6-chloro-1-(4-methoxyphenyl)-1,3,4,9-tetrahydropyrido[3,4-b]indole-2-carboxylate

> <PUBCHEM_IUPAC_CAS_NAME>
6-chloro-1-(4-methoxyphenyl)-1,3,4,9-tetrahydropyrido[3,4-b]indole-2-carboxylic acid (4-chlorophenyl) ester

> <PUBCHEM_IUPAC_NAME_MARKUP>
(4-chlorophenyl) 6-chloro-1-(4-methoxyphenyl)-1,3,4,9-tetrahydropyrido[3,4-b]indole-2-carboxylate

> <PUBCHEM_IUPAC_NAME>
(4-chlorophenyl) 6-chloro-1-(4-methoxyphenyl)-1,3,4,9-tetrahydropyrido[3,4-b]indole-2-carboxylate

> <PUBCHEM_IUPAC_SYSTEMATIC_NAME>
(4-chlorophenyl) 6-chloranyl-1-(4-methoxyphenyl)-1,3,4,9-tetrahydropyrido[3,4-b]indole-2-carboxylate

> <PUBCHEM_IUPAC_TRADITIONAL_NAME>
6-chloro-1-(4-methoxyphenyl)-1,3,4,9-tetrahydro-beta-carboline-2-carboxylic acid (4-chlorophenyl) ester

> <PUBCHEM_IUPAC_INCHI>
InChI=1S/C25H20Cl2N2O3/c1-31-18-7-2-15(3-8-18)24-23-20(21-14-17(27)6-11-22(21)28-23)12-13-29(24)25(30)32-19-9-4-16(26)5-10-19/h2-11,14,24,28H,12-13H2,1H3

> <PUBCHEM_IUPAC_INCHIKEY>
SRSHBZRURUNOSM-UHFFFAOYSA-N

> <PUBCHEM_XLOGP3_AA>
6.3

> <PUBCHEM_EXACT_MASS>
466.0850979

> <PUBCHEM_MOLECULAR_FORMULA>
C25H20Cl2N2O3

> <PUBCHEM_MOLECULAR_WEIGHT>
467.3

> <PUBCHEM_OPENEYE_CAN_SMILES>
COC1=CC=C(C=C1)C2C3=C(CCN2C(=O)OC4=CC=C(C=C4)Cl)C5=C(N3)C=CC(=C5)Cl

> <PUBCHEM_OPENEYE_ISO_SMILES>
COC1=CC=C(C=C1)C2C3=C(CCN2C(=O)OC4=CC=C(C=C4)Cl)C5=C(N3)C=CC(=C5)Cl

> <PUBCHEM_CACTVS_TPSA>
54.6

> <PUBCHEM_MONOISOTOPIC_WEIGHT>
466.0850979

> <PUBCHEM_TOTAL_CHARGE>
0

> <PUBCHEM_HEAVY_ATOM_COUNT>
32

> <PUBCHEM_ATOM_DEF_STEREO_COUNT>
0

> <PUBCHEM_ATOM_UDEF_STEREO_COUNT>
1

> <PUBCHEM_BOND_DEF_STEREO_COUNT>
0

> <PUBCHEM_BOND_UDEF_STEREO_COUNT>
0

> <PUBCHEM_ISOTOPIC_ATOM_COUNT>
0

> <PUBCHEM_COMPONENT_COUNT>
1

> <PUBCHEM_CACTVS_TAUTO_COUNT>
-1

> <PUBCHEM_COORDINATE_TYPE>
1
5
255

> <PUBCHEM_BONDANNOTATIONS>
10  13  8
13  14  8
13  17  8
14  18  8
15  19  8
15  20  8
17  21  8
18  22  8
19  23  8
20  24  8
21  22  8
23  25  8
24  25  8
26  27  8
26  28  8
27  30  8
28  31  8
30  32  8
31  32  8
7  14  8
7  9  8
8  15  3
9  10  8

$$$$
156596412
  -OEChem-11282412102D

 87 87  0     1  0  0  0  0  0999 V2000
    6.8671   -0.6550    0.0000 O   0  0  0  0  0  0  0  0  0  0  0  0
    6.0010   -0.1550    0.0000 O   0  0  0  0  0  0  0  0  0  0  0  0
    9.4651   -3.1550    0.0000 O   0  0  0  0  0  0  0  0  0  0  0  0
   12.9292   -2.1550    0.0000 O   0  0  0  0  0  0  0  0  0  0  0  0
    3.4030    2.3450    0.0000 O   0  0  0  0  0  0  0  0  0  0  0  0
   12.0632   -0.6550    0.0000 O   0  0  0  0  0  0  0  0  0  0  0  0
    7.7331   -6.1550    0.0000 O   0  0  0  0  0  0  0  0  0  0  0  0
   12.9292   -5.1550    0.0000 O   0  0  0  0  0  0  0  0  0  0  0  0
   11.1972   -5.1550    0.0000 O   0  0  0  0  0  0  0  0  0  0  0  0
    6.8671    1.3450    0.0000 N   0  0  0  0  0  0  0  0  0  0  0  0
    8.5991   -0.6550    0.0000 N   0  0  0  0  0  0  0  0  0  0  0  0
    4.2690    0.8450    0.0000 N   0  0  0  0  0  0  0  0  0  0  0  0
   10.3312   -1.6550    0.0000 N   0  0  0  0  0  0  0  0  0  0  0  0
    3.4030    4.3450    0.0000 N   0  0  0  0  0  0  0  0  0  0  0  0
    2.5369    5.8450    0.0000 N   0  0  0  0  0  0  0  0  0  0  0  0
    4.2690    5.8450    0.0000 N   0  0  0  0  0  0  0  0  0  0  0  0
    7.7331    0.8450    0.0000 C   0  0  1  0  0  0  0  0  0  0  0  0
    8.5991    1.3450    0.0000 C   0  0  0  0  0  0  0  0  0  0  0  0
    8.5991    2.3450    0.0000 C   0  0  0  0  0  0  0  0  0  0  0  0
    7.7331   -0.1550    0.0000 C   0  0  0  0  0  0  0  0  0  0  0  0
    8.5991   -1.6550    0.0000 C   0  0  1  0  0  0  0  0  0  0  0  0
    5.1350    1.3450    0.0000 C   0  0  2  0  0  0  0  0  0  0  0  0
    9.4651    2.8450    0.0000 C   0  0  0  0  0  0  0  0  0  0  0  0
    7.7331    2.8450    0.0000 C   0  0  0  0  0  0  0  0  0  0  0  0
    6.0010    0.8450    0.0000 C   0  0  0  0  0  0  0  0  0  0  0  0
    5.1350    2.3450    0.0000 C   0  0  0  0  0  0  0  0  0  0  0  0
    7.7331   -2.1550    0.0000 C   0  0  0  0  0  0  0  0  0  0  0  0
    9.4651   -2.1550    0.0000 C   0  0  0  0  0  0  0  0  0  0  0  0
    4.2690    2.8450    0.0000 C   0  0  0  0  0  0  0  0  0  0  0  0
    7.7331   -3.1550    0.0000 C   0  0  0  0  0  0  0  0  0  0  0  0
   11.1972   -2.1550    0.0000 C   0  0  1  0  0  0  0  0  0  0  0  0
   11.1972   -3.1550    0.0000 C   0  0  0  0  0  0  0  0  0  0  0  0
    4.2690    3.8450    0.0000 C   0  0  0  0  0  0  0  0  0  0  0  0
    8.5991   -3.6550    0.0000 C   0  0  0  0  0  0  0  0  0  0  0  0
    6.8671   -3.6550    0.0000 C   0  0  0  0  0  0  0  0  0  0  0  0
    3.4030    1.3450    0.0000 C   0  0  0  0  0  0  0  0  0  0  0  0
   12.0632   -3.6550    0.0000 C   0  0  0  0  0  0  0  0  0  0  0  0
   12.0632   -1.6550    0.0000 C   0  0  0  0  0  0  0  0  0  0  0  0
    8.5991   -4.6550    0.0000 C   0  0  0  0  0  0  0  0  0  0  0  0
    6.8671   -4.6550    0.0000 C   0  0  0  0  0  0  0  0  0  0  0  0
    7.7331   -5.1550    0.0000 C   0  0  0  0  0  0  0  0  0  0  0  0
    2.5369    0.8450    0.0000 C   0  0  0  0  0  0  0  0  0  0  0  0
   12.0632   -4.6550    0.0000 C   0  0  0  0  0  0  0  0  0  0  0  0
    3.4030    5.3450    0.0000 C   0  0  0  0  0  0  0  0  0  0  0  0
    7.7331    1.4650    0.0000 H   0  0  0  0  0  0  0  0  0  0  0  0
    8.8112    0.7624    0.0000 H   0  0  0  0  0  0  0  0  0  0  0  0
    9.2097    1.4527    0.0000 H   0  0  0  0  0  0  0  0  0  0  0  0
    8.5991    2.9650    0.0000 H   0  0  0  0  0  0  0  0  0  0  0  0
    6.8671    1.9650    0.0000 H   0  0  0  0  0  0  0  0  0  0  0  0
    8.0622   -1.3450    0.0000 H   0  0  0  0  0  0  0  0  0  0  0  0
    5.1350    0.7250    0.0000 H   0  0  0  0  0  0  0  0  0  0  0  0
    9.1360   -0.3450    0.0000 H   0  0  0  0  0  0  0  0  0  0  0  0
    9.7751    2.3081    0.0000 H   0  0  0  0  0  0  0  0  0  0  0  0
   10.0021    3.1550    0.0000 H   0  0  0  0  0  0  0  0  0  0  0  0
    9.1551    3.3819    0.0000 H   0  0  0  0  0  0  0  0  0  0  0  0
    8.0431    3.3819    0.0000 H   0  0  0  0  0  0  0  0  0  0  0  0
    7.1962    3.1550    0.0000 H   0  0  0  0  0  0  0  0  0  0  0  0
    7.4231    2.3081    0.0000 H   0  0  0  0  0  0  0  0  0  0  0  0
    5.7456    2.2373    0.0000 H   0  0  0  0  0  0  0  0  0  0  0  0
    5.3471    2.9276    0.0000 H   0  0  0  0  0  0  0  0  0  0  0  0
    7.5210   -1.5724    0.0000 H   0  0  0  0  0  0  0  0  0  0  0  0
    7.1225   -2.2627    0.0000 H   0  0  0  0  0  0  0  0  0  0  0  0
    3.6584    2.9527    0.0000 H   0  0  0  0  0  0  0  0  0  0  0  0
    4.0569    2.2624    0.0000 H   0  0  0  0  0  0  0  0  0  0  0  0
    4.2690    0.2250    0.0000 H   0  0  0  0  0  0  0  0  0  0  0  0
   10.6603   -2.4650    0.0000 H   0  0  0  0  0  0  0  0  0  0  0  0
   10.3312   -1.0350    0.0000 H   0  0  0  0  0  0  0  0  0  0  0  0
   10.5866   -3.0473    0.0000 H   0  0  0  0  0  0  0  0  0  0  0  0
   10.9851   -3.7376    0.0000 H   0  0  0  0  0  0  0  0  0  0  0  0
    4.8796    3.7373    0.0000 H   0  0  0  0  0  0  0  0  0  0  0  0
    4.4810    4.4276    0.0000 H   0  0  0  0  0  0  0  0  0  0  0  0
    9.1360   -3.3450    0.0000 H   0  0  0  0  0  0  0  0  0  0  0  0
    6.3301   -3.3450    0.0000 H   0  0  0  0  0  0  0  0  0  0  0  0
   12.6738   -3.7627    0.0000 H   0  0  0  0  0  0  0  0  0  0  0  0
   12.2753   -3.0724    0.0000 H   0  0  0  0  0  0  0  0  0  0  0  0
    9.1360   -4.9650    0.0000 H   0  0  0  0  0  0  0  0  0  0  0  0
    6.3301   -4.9650    0.0000 H   0  0  0  0  0  0  0  0  0  0  0  0
    2.2269    1.3819    0.0000 H   0  0  0  0  0  0  0  0  0  0  0  0
    2.0000    0.5350    0.0000 H   0  0  0  0  0  0  0  0  0  0  0  0
    2.8469    0.3081    0.0000 H   0  0  0  0  0  0  0  0  0  0  0  0
   13.4662   -1.8450    0.0000 H   0  0  0  0  0  0  0  0  0  0  0  0
    7.1962   -6.4650    0.0000 H   0  0  0  0  0  0  0  0  0  0  0  0
   12.9292   -5.7750    0.0000 H   0  0  0  0  0  0  0  0  0  0  0  0
    2.5369    6.4650    0.0000 H   0  0  0  0  0  0  0  0  0  0  0  0
    2.0000    5.5350    0.0000 H   0  0  0  0  0  0  0  0  0  0  0  0
    4.2690    6.4650    0.0000 H   0  0  0  0  0  0  0  0  0  0  0  0
    4.8059    5.5350    0.0000 H   0  0  0  0  0  0  0  0  0  0  0  0
  1 20  2  0  0  0  0
  2 25  2  0  0  0  0
  3 28  2  0  0  0  0
  4 38  1  0  0  0  0
  4 81  1  0  0  0  0
  5 36  2  0  0  0  0
  6 38  2  0  0  0  0
  7 41  1  0  0  0  0
  7 82  1  0  0  0  0
  8 43  1  0  0  0  0
  8 83  1  0  0  0  0
  9 43  2  0  0  0  0
 17 10  1  1  0  0  0
 10 25  1  0  0  0  0
 10 49  1  0  0  0  0
 11 20  1  0  0  0  0
 21 11  1  6  0  0  0
 11 52  1  0  0  0  0
 22 12  1  1  0  0  0
 12 36  1  0  0  0  0
 12 65  1  0  0  0  0
 13 28  1  0  0  0  0
 31 13  1  6  0  0  0
 13 67  1  0  0  0  0
 14 33  1  0  0  0  0
 14 44  2  0  0  0  0
 15 44  1  0  0  0  0
 15 84  1  0  0  0  0
 15 85  1  0  0  0  0
 16 44  1  0  0  0  0
 16 86  1  0  0  0  0
 16 87  1  0  0  0  0
 17 18  1  0  0  0  0
 17 20  1  0  0  0  0
 17 45  1  0  0  0  0
 18 19  1  0  0  0  0
 18 46  1  0  0  0  0
 18 47  1  0  0  0  0
 19 23  1  0  0  0  0
 19 24  1  0  0  0  0
 19 48  1  0  0  0  0
 21 27  1  0  0  0  0
 21 28  1  0  0  0  0
 21 50  1  0  0  0  0
 22 25  1  0  0  0  0
 22 26  1  0  0  0  0
 22 51  1  0  0  0  0
 23 53  1  0  0  0  0
 23 54  1  0  0  0  0
 23 55  1  0  0  0  0
 24 56  1  0  0  0  0
 24 57  1  0  0  0  0
 24 58  1  0  0  0  0
 26 29  1  0  0  0  0
 26 59  1  0  0  0  0
 26 60  1  0  0  0  0
 27 30  1  0  0  0  0
 27 61  1  0  0  0  0
 27 62  1  0  0  0  0
 29 33  1  0  0  0  0
 29 63  1  0  0  0  0
 29 64  1  0  0  0  0
 30 34  2  0  0  0  0
 30 35  1  0  0  0  0
 31 32  1  0  0  0  0
 31 38  1  0  0  0  0
 31 66  1  0  0  0  0
 32 37  1  0  0  0  0
 32 68  1  0  0  0  0
 32 69  1  0  0  0  0
 33 70  1  0  0  0  0
 33 71  1  0  0  0  0
 34 39  1  0  0  0  0
 34 72  1  0  0  0  0
 35 40  2  0  0  0  0
 35 73  1  0  0  0  0
 36 42  1  0  0  0  0
 37 43  1  0  0  0  0
 37 74  1  0  0  0  0
 37 75  1  0  0  0  0
 39 41  2  0  0  0  0
 39 76  1  0  0  0  0
 40 41  1  0  0  0  0
 40 77  1  0  0  0  0
 42 78  1  0  0  0  0
 42 79  1  0  0  0  0
 42 80  1  0  0  0  0
M  END
> <PUBCHEM_COMPOUND_CID>
156596412

> <PUBCHEM_COMPOUND_CANONICALIZED>
1

> <PUBCHEM_CACTVS_COMPLEXITY>
1020

> <PUBCHEM_CACTVS_HBOND_ACCEPTOR>
10

> <PUBCHEM_CACTVS_HBOND_DONOR>
9

> <PUBCHEM_CACTVS_ROTATABLE_BOND>
19

> <PUBCHEM_CACTVS_SUBSKEYS>
AAADcfB7vAAAAAAAAAAAAAAAAAAAAAAAAAAwAAAAAAAAAAABAAAAHgAQCAAADSzBmAQzDoLAAgCoAiHSPAACAAEgIAAIiIGOCIgKZjKCkTOUcAAk1hGYmAe876COIAAAAAAAAABAAAAAAAAAAAAAAAAAAA==

> <PUBCHEM_IUPAC_OPENEYE_NAME>
(2S)-2-[[(2S)-2-[[(2S)-2-[[(2S)-2-acetamido-5-guanidino-pentanoyl]amino]-4-methyl-pentanoyl]amino]-3-(4-hydroxyphenyl)propanoyl]amino]pentanedioic acid

> <PUBCHEM_IUPAC_CAS_NAME>
(2S)-2-[[(2S)-2-[[(2S)-2-[[(2S)-2-acetamido-5-(diaminomethylideneamino)-1-oxopentyl]amino]-4-methyl-1-oxopentyl]amino]-3-(4-hydroxyphenyl)-1-oxopropyl]amino]pentanedioic acid

> <PUBCHEM_IUPAC_NAME_MARKUP>
(2<I>S</I>)-2-[[(2<I>S</I>)-2-[[(2<I>S</I>)-2-[[(2<I>S</I>)-2-acetamido-5-(diaminomethylideneamino)pentanoyl]amino]-4-methylpentanoyl]amino]-3-(4-hydroxyphenyl)propanoyl]amino]pentanedioic acid

> <PUBCHEM_IUPAC_NAME>
(2S)-2-[[(2S)-2-[[(2S)-2-[[(2S)-2-acetamido-5-(diaminomethylideneamino)pentanoyl]amino]-4-methylpentanoyl]amino]-3-(4-hydroxyphenyl)propanoyl]amino]pentanedioic acid

> <PUBCHEM_IUPAC_SYSTEMATIC_NAME>
(2S)-2-[[(2S)-2-[[(2S)-2-[[(2S)-2-acetamido-5-[bis(azanyl)methylideneamino]pentanoyl]amino]-4-methyl-pentanoyl]amino]-3-(4-hydroxyphenyl)propanoyl]amino]pentanedioic acid

> <PUBCHEM_IUPAC_TRADITIONAL_NAME>
(2S)-2-[[(2S)-2-[[(2S)-2-[[(2S)-2-acetamido-5-guanidino-pentanoyl]amino]-4-methyl-pentanoyl]amino]-3-(4-hydroxyphenyl)propanoyl]amino]glutaric acid

> <PUBCHEM_IUPAC_INCHI>
InChI=1S/C28H43N7O9/c1-15(2)13-21(34-24(40)19(32-16(3)36)5-4-12-31-28(29)30)25(41)35-22(14-17-6-8-18(37)9-7-17)26(42)33-20(27(43)44)10-11-23(38)39/h6-9,15,19-22,37H,4-5,10-14H2,1-3H3,(H,32,36)(H,33,42)(H,34,40)(H,35,41)(H,38,39)(H,43,44)(H4,29,30,31)/t19-,20-,21-,22-/m0/s1

> <PUBCHEM_IUPAC_INCHIKEY>
CTHOVYCXWNPTSN-CMOCDZPBSA-N

> <PUBCHEM_XLOGP3>
-0.8

> <PUBCHEM_EXACT_MASS>
621.31222597

> <PUBCHEM_MOLECULAR_FORMULA>
C28H43N7O9

> <PUBCHEM_MOLECULAR_WEIGHT>
621.7

> <PUBCHEM_OPENEYE_CAN_SMILES>
CC(C)CC(C(=O)NC(CC1=CC=C(C=C1)O)C(=O)NC(CCC(=O)O)C(=O)O)NC(=O)C(CCCN=C(N)N)NC(=O)C

> <PUBCHEM_OPENEYE_ISO_SMILES>
CC(C)C[C@@H](C(=O)N[C@@H](CC1=CC=C(C=C1)O)C(=O)N[C@@H](CCC(=O)O)C(=O)O)NC(=O)[C@H](CCCN=C(N)N)NC(=O)C

> <PUBCHEM_CACTVS_TPSA>
276

> <PUBCHEM_MONOISOTOPIC_WEIGHT>
621.31222597

> <PUBCHEM_TOTAL_CHARGE>
0

> <PUBCHEM_HEAVY_ATOM_COUNT>
44

> <PUBCHEM_ATOM_DEF_STEREO_COUNT>
4

> <PUBCHEM_ATOM_UDEF_STEREO_COUNT>
0

> <PUBCHEM_BOND_DEF_STEREO_COUNT>
0

> <PUBCHEM_BOND_UDEF_STEREO_COUNT>
0

> <PUBCHEM_ISOTOPIC_ATOM_COUNT>
0

> <PUBCHEM_COMPONENT_COUNT>
1

> <PUBCHEM_CACTVS_TAUTO_COUNT>
-1

> <PUBCHEM_COORDINATE_TYPE>
1
5
255

> <PUBCHEM_BONDANNOTATIONS>
17  10  5
21  11  6
22  12  5
31  13  6
30  34  8
30  35  8
34  39  8
35  40  8
39  41  8
40  41  8

$$$$
11485656
  -OEChem-11282412102D

 46 49  0     0  0  0  0  0  0999 V2000
    5.4641    4.9470    0.0000 F   0  0  0  0  0  0  0  0  0  0  0  0
    4.5981    1.4470    0.0000 O   0  0  0  0  0  0  0  0  0  0  0  0
    8.1424   -4.3577    0.0000 N   0  0  0  0  0  0  0  0  0  0  0  0
    8.7260   -3.5530    0.0000 N   0  0  0  0  0  0  0  0  0  0  0  0
    6.3301    1.4470    0.0000 N   0  0  0  0  0  0  0  0  0  0  0  0
    8.4530   -1.7977    0.0000 N   0  0  0  0  0  0  0  0  0  0  0  0
    5.4641    2.9470    0.0000 N   0  0  0  0  0  0  0  0  0  0  0  0
    7.1962   -3.0530    0.0000 C   0  0  0  0  0  0  0  0  0  0  0  0
    6.3301   -2.5530    0.0000 C   0  0  0  0  0  0  0  0  0  0  0  0
    7.1962   -4.0530    0.0000 C   0  0  0  0  0  0  0  0  0  0  0  0
    6.3301   -1.5530    0.0000 C   0  0  0  0  0  0  0  0  0  0  0  0
    8.1424   -2.7482    0.0000 C   0  0  0  0  0  0  0  0  0  0  0  0
    5.4641   -3.0530    0.0000 C   0  0  0  0  0  0  0  0  0  0  0  0
    6.3301   -4.5530    0.0000 C   0  0  0  0  0  0  0  0  0  0  0  0
    5.4641   -1.0530    0.0000 C   0  0  0  0  0  0  0  0  0  0  0  0
    7.1962   -1.0530    0.0000 C   0  0  0  0  0  0  0  0  0  0  0  0
    5.4641   -4.0530    0.0000 C   0  0  0  0  0  0  0  0  0  0  0  0
    6.3301    0.4470    0.0000 C   0  0  0  0  0  0  0  0  0  0  0  0
    5.4641   -0.0530    0.0000 C   0  0  0  0  0  0  0  0  0  0  0  0
    7.1962   -0.0530    0.0000 C   0  0  0  0  0  0  0  0  0  0  0  0
    4.5981    3.4470    0.0000 C   0  0  0  0  0  0  0  0  0  0  0  0
    5.4641    1.9470    0.0000 C   0  0  0  0  0  0  0  0  0  0  0  0
    2.8660    3.4470    0.0000 C   0  0  0  0  0  0  0  0  0  0  0  0
    3.7320    2.9470    0.0000 C   0  0  0  0  0  0  0  0  0  0  0  0
    4.5981    4.4470    0.0000 C   0  0  0  0  0  0  0  0  0  0  0  0
    2.8660    4.4470    0.0000 C   0  0  0  0  0  0  0  0  0  0  0  0
    3.7320    4.9470    0.0000 C   0  0  0  0  0  0  0  0  0  0  0  0
    2.0000    2.9470    0.0000 C   0  0  0  0  0  0  0  0  0  0  0  0
    4.9272   -2.7430    0.0000 H   0  0  0  0  0  0  0  0  0  0  0  0
    6.3301   -5.1730    0.0000 H   0  0  0  0  0  0  0  0  0  0  0  0
    4.9272   -1.3630    0.0000 H   0  0  0  0  0  0  0  0  0  0  0  0
    7.7331   -1.3630    0.0000 H   0  0  0  0  0  0  0  0  0  0  0  0
    4.9272   -4.3630    0.0000 H   0  0  0  0  0  0  0  0  0  0  0  0
    8.3350   -4.9470    0.0000 H   0  0  0  0  0  0  0  0  0  0  0  0
    4.9272    0.2570    0.0000 H   0  0  0  0  0  0  0  0  0  0  0  0
    7.7331    0.2570    0.0000 H   0  0  0  0  0  0  0  0  0  0  0  0
    6.8671    1.7570    0.0000 H   0  0  0  0  0  0  0  0  0  0  0  0
    9.0597   -1.6699    0.0000 H   0  0  0  0  0  0  0  0  0  0  0  0
    8.0390   -1.3362    0.0000 H   0  0  0  0  0  0  0  0  0  0  0  0
    3.7320    2.3270    0.0000 H   0  0  0  0  0  0  0  0  0  0  0  0
    6.0010    3.2570    0.0000 H   0  0  0  0  0  0  0  0  0  0  0  0
    2.3291    4.7570    0.0000 H   0  0  0  0  0  0  0  0  0  0  0  0
    3.7320    5.5670    0.0000 H   0  0  0  0  0  0  0  0  0  0  0  0
    1.6900    3.4840    0.0000 H   0  0  0  0  0  0  0  0  0  0  0  0
    1.4631    2.6370    0.0000 H   0  0  0  0  0  0  0  0  0  0  0  0
    2.3100    2.4101    0.0000 H   0  0  0  0  0  0  0  0  0  0  0  0
  1 25  1  0  0  0  0
  2 22  2  0  0  0  0
  3  4  1  0  0  0  0
  3 10  1  0  0  0  0
  3 34  1  0  0  0  0
  4 12  2  0  0  0  0
  5 18  1  0  0  0  0
  5 22  1  0  0  0  0
  5 37  1  0  0  0  0
  6 12  1  0  0  0  0
  6 38  1  0  0  0  0
  6 39  1  0  0  0  0
  7 21  1  0  0  0  0
  7 22  1  0  0  0  0
  7 41  1  0  0  0  0
  8  9  2  0  0  0  0
  8 10  1  0  0  0  0
  8 12  1  0  0  0  0
  9 11  1  0  0  0  0
  9 13  1  0  0  0  0
 10 14  2  0  0  0  0
 11 15  2  0  0  0  0
 11 16  1  0  0  0  0
 13 17  2  0  0  0  0
 13 29  1  0  0  0  0
 14 17  1  0  0  0  0
 14 30  1  0  0  0  0
 15 19  1  0  0  0  0
 15 31  1  0  0  0  0
 16 20  2  0  0  0  0
 16 32  1  0  0  0  0
 17 33  1  0  0  0  0
 18 19  2  0  0  0  0
 18 20  1  0  0  0  0
 19 35  1  0  0  0  0
 20 36  1  0  0  0  0
 21 24  1  0  0  0  0
 21 25  2  0  0  0  0
 23 24  2  0  0  0  0
 23 26  1  0  0  0  0
 23 28  1  0  0  0  0
 24 40  1  0  0  0  0
 25 27  1  0  0  0  0
 26 27  2  0  0  0  0
 26 42  1  0  0  0  0
 27 43  1  0  0  0  0
 28 44  1  0  0  0  0
 28 45  1  0  0  0  0
 28 46  1  0  0  0  0
M  END
> <PUBCHEM_COMPOUND_CID>
11485656

> <PUBCHEM_COMPOUND_CANONICALIZED>
1

> <PUBCHEM_CACTVS_COMPLEXITY>
541

> <PUBCHEM_CACTVS_HBOND_ACCEPTOR>
4

> <PUBCHEM_CACTVS_HBOND_DONOR>
4

> <PUBCHEM_CACTVS_ROTATABLE_BOND>
3

> <PUBCHEM_CACTVS_SUBSKEYS>
AAADceB7oQAAAAAAAAAAAAAAAAAAAWAAAAAwYMAAAAAAAFgB9AAAHwAYAAAADAiBHggz8PLjAACqAyZicACSBAIhAgAcuSAwZJiIIKLA0dGEpAh4nAJIyCcQgMAOiAAAQAASAAAQAACAACQAAAAAAAAAAA==

> <PUBCHEM_IUPAC_OPENEYE_NAME>
1-[4-(3-amino-1H-indazol-4-yl)phenyl]-3-(2-fluoro-5-methyl-phenyl)urea

> <PUBCHEM_IUPAC_CAS_NAME>
1-[4-(3-amino-1H-indazol-4-yl)phenyl]-3-(2-fluoro-5-methylphenyl)urea

> <PUBCHEM_IUPAC_NAME_MARKUP>
1-[4-(3-amino-1<I>H</I>-indazol-4-yl)phenyl]-3-(2-fluoro-5-methylphenyl)urea

> <PUBCHEM_IUPAC_NAME>
1-[4-(3-amino-1H-indazol-4-yl)phenyl]-3-(2-fluoro-5-methylphenyl)urea

> <PUBCHEM_IUPAC_SYSTEMATIC_NAME>
1-[4-(3-azanyl-1H-indazol-4-yl)phenyl]-3-(2-fluoranyl-5-methyl-phenyl)urea

> <PUBCHEM_IUPAC_TRADITIONAL_NAME>
1-[4-(3-amino-1H-indazol-4-yl)phenyl]-3-(2-fluoro-5-methyl-phenyl)urea

> <PUBCHEM_IUPAC_INCHI>
InChI=1S/C21H18FN5O/c1-12-5-10-16(22)18(11-12)25-21(28)24-14-8-6-13(7-9-14)15-3-2-4-17-19(15)20(23)27-26-17/h2-11H,1H3,(H3,23,26,27)(H2,24,25,28)

> <PUBCHEM_IUPAC_INCHIKEY>
MPVGZUGXCQEXTM-UHFFFAOYSA-N

> <PUBCHEM_XLOGP3_AA>
3.9

> <PUBCHEM_EXACT_MASS>
375.14953838

> <PUBCHEM_MOLECULAR_FORMULA>
C21H18FN5O

> <PUBCHEM_MOLECULAR_WEIGHT>
375.4

> <PUBCHEM_OPENEYE_CAN_SMILES>
CC1=CC(=C(C=C1)F)NC(=O)NC2=CC=C(C=C2)C3=C4C(=CC=C3)NN=C4N

> <PUBCHEM_OPENEYE_ISO_SMILES>
CC1=CC(=C(C=C1)F)NC(=O)NC2=CC=C(C=C2)C3=C4C(=CC=C3)NN=C4N

> <PUBCHEM_CACTVS_TPSA>
95.8

> <PUBCHEM_MONOISOTOPIC_WEIGHT>
375.14953838

> <PUBCHEM_TOTAL_CHARGE>
0

> <PUBCHEM_HEAVY_ATOM_COUNT>
28

> <PUBCHEM_ATOM_DEF_STEREO_COUNT>
0

> <PUBCHEM_ATOM_UDEF_STEREO_COUNT>
0

> <PUBCHEM_BOND_DEF_STEREO_COUNT>
0

> <PUBCHEM_BOND_UDEF_STEREO_COUNT>
0

> <PUBCHEM_ISOTOPIC_ATOM_COUNT>
0

> <PUBCHEM_COMPONENT_COUNT>
1

> <PUBCHEM_CACTVS_TAUTO_COUNT>
-1

> <PUBCHEM_COORDINATE_TYPE>
1
5
255

> <PUBCHEM_BONDANNOTATIONS>
10  14  8
11  15  8
11  16  8
13  17  8
14  17  8
15  19  8
16  20  8
18  19  8
18  20  8
21  24  8
21  25  8
23  24  8
23  26  8
25  27  8
26  27  8
3  10  8
3  4  8
4  12  8
8  10  8
8  12  8
8  9  8
9  13  8

$$$$
10174505
  -OEChem-11282412102D

 64 65  0     1  0  0  0  0  0999 V2000
    2.5981    8.6618    0.0000 O   0  0  0  0  0  0  0  0  0  0  0  0
    5.0390    1.1340    0.0000 O   0  0  0  0  0  0  0  0  0  0  0  0
    6.2711    2.0000    0.0000 O   0  0  0  0  0  0  0  0  0  0  0  0
    5.4050    3.5000    0.0000 O   0  0  0  0  0  0  0  0  0  0  0  0
    2.8070    0.0000    0.0000 O   0  0  0  0  0  0  0  0  0  0  0  0
    2.5390    3.7320    0.0000 O   0  0  0  0  0  0  0  0  0  0  0  0
    4.5390    0.0000    0.0000 O   0  0  0  0  0  0  0  0  0  0  0  0
    2.5390    2.0000    0.0000 O   0  0  0  0  0  0  0  0  0  0  0  0
    3.4641   10.1618    0.0000 N   0  0  0  0  0  0  0  0  0  0  0  0
    6.0622    9.6618    0.0000 N   0  0  3  0  0  0  0  0  0  0  0  0
    5.1962    8.1618    0.0000 N   0  0  0  0  0  0  0  0  0  0  0  0
    7.8744    6.8570    0.0000 N   0  0  0  0  0  0  0  0  0  0  0  0
    6.0622    6.6618    0.0000 N   0  0  0  0  0  0  0  0  0  0  0  0
    0.0000    9.1618    0.0000 N   0  0  0  0  0  0  0  0  0  0  0  0
    5.1962   10.1618    0.0000 C   0  0  2  0  0  0  0  0  0  0  0  0
    5.1962   11.1618    0.0000 C   0  0  1  0  0  0  0  0  0  0  0  0
    4.3301   11.6618    0.0000 C   0  0  0  0  0  0  0  0  0  0  0  0
    4.3301    9.6618    0.0000 C   0  0  0  0  0  0  0  0  0  0  0  0
    3.4641   11.1618    0.0000 C   0  0  0  0  0  0  0  0  0  0  0  0
    6.0622   11.6618    0.0000 C   0  0  0  0  0  0  0  0  0  0  0  0
    2.5981    9.6618    0.0000 C   0  0  0  0  0  0  0  0  0  0  0  0
    6.0622    8.6618    0.0000 C   0  0  0  0  0  0  0  0  0  0  0  0
    6.9282   10.1618    0.0000 C   0  0  0  0  0  0  0  0  0  0  0  0
    6.9282    8.1618    0.0000 C   0  0  0  0  0  0  0  0  0  0  0  0
    1.7320   10.1618    0.0000 C   0  0  0  0  0  0  0  0  0  0  0  0
    6.9282    7.1618    0.0000 C   0  0  0  0  0  0  0  0  0  0  0  0
    7.8744    8.4665    0.0000 C   0  0  0  0  0  0  0  0  0  0  0  0
    5.1962    7.1618    0.0000 C   0  0  0  0  0  0  0  0  0  0  0  0
    8.4580    7.6618    0.0000 C   0  0  0  0  0  0  0  0  0  0  0  0
    0.8660    9.6618    0.0000 C   0  0  0  0  0  0  0  0  0  0  0  0
    4.5390    2.0000    0.0000 C   0  0  0  0  0  0  0  0  0  0  0  0
    3.6730    1.5000    0.0000 C   0  0  0  0  0  0  0  0  0  0  0  0
    4.0390    2.8660    0.0000 C   0  0  0  0  0  0  0  0  0  0  0  0
    5.4050    2.5000    0.0000 C   0  0  0  0  0  0  0  0  0  0  0  0
    3.6730    0.5000    0.0000 C   0  0  0  0  0  0  0  0  0  0  0  0
    3.0390    2.8660    0.0000 C   0  0  0  0  0  0  0  0  0  0  0  0
    5.1962    9.5418    0.0000 H   0  0  0  0  0  0  0  0  0  0  0  0
    5.1962   11.7818    0.0000 H   0  0  0  0  0  0  0  0  0  0  0  0
    4.7286   12.1367    0.0000 H   0  0  0  0  0  0  0  0  0  0  0  0
    3.9316   12.1367    0.0000 H   0  0  0  0  0  0  0  0  0  0  0  0
    3.9316    9.1868    0.0000 H   0  0  0  0  0  0  0  0  0  0  0  0
    4.7286    9.1868    0.0000 H   0  0  0  0  0  0  0  0  0  0  0  0
    3.2520   11.7444    0.0000 H   0  0  0  0  0  0  0  0  0  0  0  0
    2.8535   11.0541    0.0000 H   0  0  0  0  0  0  0  0  0  0  0  0
    6.3722   11.1248    0.0000 H   0  0  0  0  0  0  0  0  0  0  0  0
    6.5991   11.9718    0.0000 H   0  0  0  0  0  0  0  0  0  0  0  0
    5.7522   12.1987    0.0000 H   0  0  0  0  0  0  0  0  0  0  0  0
    7.2382    9.6248    0.0000 H   0  0  0  0  0  0  0  0  0  0  0  0
    7.4651   10.4718    0.0000 H   0  0  0  0  0  0  0  0  0  0  0  0
    6.6182   10.6987    0.0000 H   0  0  0  0  0  0  0  0  0  0  0  0
    2.1306   10.6367    0.0000 H   0  0  0  0  0  0  0  0  0  0  0  0
    1.3335   10.6367    0.0000 H   0  0  0  0  0  0  0  0  0  0  0  0
    8.0670    9.0558    0.0000 H   0  0  0  0  0  0  0  0  0  0  0  0
    4.6592    6.8518    0.0000 H   0  0  0  0  0  0  0  0  0  0  0  0
    8.0670    6.2677    0.0000 H   0  0  0  0  0  0  0  0  0  0  0  0
    9.0780    7.6618    0.0000 H   0  0  0  0  0  0  0  0  0  0  0  0
    3.4609    2.0826    0.0000 H   0  0  0  0  0  0  0  0  0  0  0  0
    3.0624    1.3923    0.0000 H   0  0  0  0  0  0  0  0  0  0  0  0
    4.6216    3.0781    0.0000 H   0  0  0  0  0  0  0  0  0  0  0  0
    3.9314    3.4766    0.0000 H   0  0  0  0  0  0  0  0  0  0  0  0
    4.7290    0.5970    0.0000 H   0  0  0  0  0  0  0  0  0  0  0  0
    6.8080    2.3100    0.0000 H   0  0  0  0  0  0  0  0  0  0  0  0
    2.2700    0.3100    0.0000 H   0  0  0  0  0  0  0  0  0  0  0  0
    2.8490    4.2690    0.0000 H   0  0  0  0  0  0  0  0  0  0  0  0
  1 21  2  0  0  0  0
  2 31  1  0  0  0  0
  2 61  1  0  0  0  0
  3 34  1  0  0  0  0
  3 62  1  0  0  0  0
  4 34  2  0  0  0  0
  5 35  1  0  0  0  0
  5 63  1  0  0  0  0
  6 36  1  0  0  0  0
  6 64  1  0  0  0  0
  7 35  2  0  0  0  0
  8 36  2  0  0  0  0
  9 18  1  0  0  0  0
  9 19  1  0  0  0  0
  9 21  1  0  0  0  0
 15 10  1  1  0  0  0
 10 22  1  0  0  0  0
 10 23  1  0  0  0  0
 11 22  2  0  0  0  0
 11 28  1  0  0  0  0
 12 26  1  0  0  0  0
 12 29  1  0  0  0  0
 12 55  1  0  0  0  0
 13 26  1  0  0  0  0
 13 28  2  0  0  0  0
 14 30  3  0  0  0  0
 15 16  1  0  0  0  0
 15 18  1  0  0  0  0
 15 37  1  0  0  0  0
 16 17  1  0  0  0  0
 16 20  1  1  0  0  0
 16 38  1  0  0  0  0
 17 19  1  0  0  0  0
 17 39  1  0  0  0  0
 17 40  1  0  0  0  0
 18 41  1  0  0  0  0
 18 42  1  0  0  0  0
 19 43  1  0  0  0  0
 19 44  1  0  0  0  0
 20 45  1  0  0  0  0
 20 46  1  0  0  0  0
 20 47  1  0  0  0  0
 21 25  1  0  0  0  0
 22 24  1  0  0  0  0
 23 48  1  0  0  0  0
 23 49  1  0  0  0  0
 23 50  1  0  0  0  0
 24 26  2  0  0  0  0
 24 27  1  0  0  0  0
 25 30  1  0  0  0  0
 25 51  1  0  0  0  0
 25 52  1  0  0  0  0
 27 29  2  0  0  0  0
 27 53  1  0  0  0  0
 28 54  1  0  0  0  0
 29 56  1  0  0  0  0
 31 32  1  0  0  0  0
 31 33  1  0  0  0  0
 31 34  1  0  0  0  0
 32 35  1  0  0  0  0
 32 57  1  0  0  0  0
 32 58  1  0  0  0  0
 33 36  1  0  0  0  0
 33 59  1  0  0  0  0
 33 60  1  0  0  0  0
M  END
> <PUBCHEM_COMPOUND_CID>
10174505

> <PUBCHEM_COMPOUND_CANONICALIZED>
1

> <PUBCHEM_CACTVS_COMPLEXITY>
716

> <PUBCHEM_CACTVS_HBOND_ACCEPTOR>
12

> <PUBCHEM_CACTVS_HBOND_DONOR>
5

> <PUBCHEM_CACTVS_ROTATABLE_BOND>
8

> <PUBCHEM_CACTVS_SUBSKEYS>
AAADceB7vAAAAAAAAAAAAAAAAAAAAWAAAAAsWAAAAAAAAFgB+AAAHgAQCAAADWzBmwQ/uN/JkgC4BjP3fAKCgCmxAqAJ2aF4ZJiJ6NZAyMEURAhNNgLBQCDbJgAKAAAAAAAAAAAAAAAAAAAAAAAAAAAAAA==

> <PUBCHEM_IUPAC_OPENEYE_NAME>
citric acid;3-[(3R,4R)-4-methyl-3-[methyl(7H-pyrrolo[2,3-d]pyrimidin-4-yl)amino]-1-piperidyl]-3-oxo-propanenitrile

> <PUBCHEM_IUPAC_CAS_NAME>
2-hydroxypropane-1,2,3-tricarboxylic acid;3-[(3R,4R)-4-methyl-3-[methyl(7H-pyrrolo[2,3-d]pyrimidin-4-yl)amino]-1-piperidinyl]-3-oxopropanenitrile

> <PUBCHEM_IUPAC_NAME_MARKUP>
2-hydroxypropane-1,2,3-tricarboxylic acid;3-[(3<I>R</I>,4<I>R</I>)-4-methyl-3-[methyl(7<I>H</I>-pyrrolo[2,3-d]pyrimidin-4-yl)amino]piperidin-1-yl]-3-oxopropanenitrile

> <PUBCHEM_IUPAC_NAME>
2-hydroxypropane-1,2,3-tricarboxylic acid;3-[(3R,4R)-4-methyl-3-[methyl(7H-pyrrolo[2,3-d]pyrimidin-4-yl)amino]piperidin-1-yl]-3-oxopropanenitrile

> <PUBCHEM_IUPAC_SYSTEMATIC_NAME>
3-[(3R,4R)-4-methyl-3-[methyl(7H-pyrrolo[2,3-d]pyrimidin-4-yl)amino]piperidin-1-yl]-3-oxidanylidene-propanenitrile;2-oxidanylpropane-1,2,3-tricarboxylic acid

> <PUBCHEM_IUPAC_TRADITIONAL_NAME>
citric acid;3-keto-3-[(3R,4R)-4-methyl-3-[methyl(7H-pyrrolo[2,3-d]pyrimidin-4-yl)amino]piperidino]propionitrile

> <PUBCHEM_IUPAC_INCHI>
InChI=1S/C16H20N6O.C6H8O7/c1-11-5-8-22(14(23)3-6-17)9-13(11)21(2)16-12-4-7-18-15(12)19-10-20-16;7-3(8)1-6(13,5(11)12)2-4(9)10/h4,7,10-11,13H,3,5,8-9H2,1-2H3,(H,18,19,20);13H,1-2H2,(H,7,8)(H,9,10)(H,11,12)/t11-,13+;/m1./s1

> <PUBCHEM_IUPAC_INCHIKEY>
SYIKUFDOYJFGBQ-YLAFAASESA-N

> <PUBCHEM_EXACT_MASS>
504.19686187

> <PUBCHEM_MOLECULAR_FORMULA>
C22H28N6O8

> <PUBCHEM_MOLECULAR_WEIGHT>
504.5

> <PUBCHEM_OPENEYE_CAN_SMILES>
CC1CCN(CC1N(C)C2=NC=NC3=C2C=CN3)C(=O)CC#N.C(C(=O)O)C(CC(=O)O)(C(=O)O)O

> <PUBCHEM_OPENEYE_ISO_SMILES>
C[C@@H]1CCN(C[C@@H]1N(C)C2=NC=NC3=C2C=CN3)C(=O)CC#N.C(C(=O)O)C(CC(=O)O)(C(=O)O)O

> <PUBCHEM_CACTVS_TPSA>
221

> <PUBCHEM_MONOISOTOPIC_WEIGHT>
504.19686187

> <PUBCHEM_TOTAL_CHARGE>
0

> <PUBCHEM_HEAVY_ATOM_COUNT>
36

> <PUBCHEM_ATOM_DEF_STEREO_COUNT>
2

> <PUBCHEM_ATOM_UDEF_STEREO_COUNT>
0

> <PUBCHEM_BOND_DEF_STEREO_COUNT>
0

> <PUBCHEM_BOND_UDEF_STEREO_COUNT>
0

> <PUBCHEM_ISOTOPIC_ATOM_COUNT>
0

> <PUBCHEM_COMPONENT_COUNT>
2

> <PUBCHEM_CACTVS_TAUTO_COUNT>
-1

> <PUBCHEM_COORDINATE_TYPE>
1
5
255

> <PUBCHEM_BONDANNOTATIONS>
15  10  5
11  22  8
11  28  8
12  26  8
12  29  8
13  26  8
13  28  8
16  20  5
22  24  8
24  26  8
24  27  8
27  29  8

$$$$
135423438
  -OEChem-11282412102D

 73 77  0     0  0  0  0  0  0999 V2000
    6.5155    2.3529    0.0000 O   0  0  0  0  0  0  0  0  0  0  0  0
    8.8600   -4.4868    0.0000 O   0  0  0  0  0  0  0  0  0  0  0  0
    2.8660   -4.9868    0.0000 O   0  0  0  0  0  0  0  0  0  0  0  0
    3.7320   -6.4868    0.0000 O   0  0  0  0  0  0  0  0  0  0  0  0
    7.1368    4.2539    0.0000 N   0  0  0  0  0  0  0  0  0  0  0  0
    5.8011    5.7425    0.0000 N   0  0  0  0  0  0  0  0  0  0  0  0
    8.1618    1.8148    0.0000 N   0  0  0  0  0  0  0  0  0  0  0  0
    7.2764   -5.2916    0.0000 N   0  0  0  0  0  0  0  0  0  0  0  0
    6.9192   -1.9873    0.0000 N   0  0  0  0  0  0  0  0  0  0  0  0
    7.4474    5.2044    0.0000 C   0  0  0  0  0  0  0  0  0  0  0  0
    6.1583    4.0477    0.0000 C   0  0  0  0  0  0  0  0  0  0  0  0
    6.7796    5.9488    0.0000 C   0  0  0  0  0  0  0  0  0  0  0  0
    5.4904    4.7920    0.0000 C   0  0  0  0  0  0  0  0  0  0  0  0
    7.8046    3.5096    0.0000 C   0  0  0  0  0  0  0  0  0  0  0  0
    5.1333    6.4868    0.0000 C   0  0  0  0  0  0  0  0  0  0  0  0
    7.4940    2.5591    0.0000 C   0  0  0  0  0  0  0  0  0  0  0  0
    7.8512    0.8643    0.0000 C   0  0  0  0  0  0  0  0  0  0  0  0
    9.1403    2.0210    0.0000 C   0  0  0  0  0  0  0  0  0  0  0  0
    7.2764   -3.6821    0.0000 C   0  0  0  0  0  0  0  0  0  0  0  0
    6.3301   -3.9868    0.0000 C   0  0  0  0  0  0  0  0  0  0  0  0
    6.3301   -4.9868    0.0000 C   0  0  0  0  0  0  0  0  0  0  0  0
    8.5190    0.1200    0.0000 C   0  0  0  0  0  0  0  0  0  0  0  0
    6.8726    0.6581    0.0000 C   0  0  0  0  0  0  0  0  0  0  0  0
    7.5870   -2.7316    0.0000 C   0  0  0  0  0  0  0  0  0  0  0  0
    7.8600   -4.4868    0.0000 C   0  0  0  0  0  0  0  0  0  0  0  0
    7.2298   -1.0368    0.0000 C   0  0  0  0  0  0  0  0  0  0  0  0
    8.2083   -0.8305    0.0000 C   0  0  0  0  0  0  0  0  0  0  0  0
    6.5620   -0.2925    0.0000 C   0  0  0  0  0  0  0  0  0  0  0  0
    5.4641   -3.4868    0.0000 C   0  0  0  0  0  0  0  0  0  0  0  0
    5.4641   -5.4868    0.0000 C   0  0  0  0  0  0  0  0  0  0  0  0
    8.5655   -2.5254    0.0000 C   0  0  0  0  0  0  0  0  0  0  0  0
    4.5981   -4.9868    0.0000 C   0  0  0  0  0  0  0  0  0  0  0  0
    4.5981   -3.9868    0.0000 C   0  0  0  0  0  0  0  0  0  0  0  0
    9.2334   -3.2697    0.0000 C   0  0  0  0  0  0  0  0  0  0  0  0
    8.8762   -1.5748    0.0000 C   0  0  0  0  0  0  0  0  0  0  0  0
    3.7320   -5.4868    0.0000 C   0  0  0  0  0  0  0  0  0  0  0  0
   10.2119   -3.0634    0.0000 C   0  0  0  0  0  0  0  0  0  0  0  0
    9.8547   -1.3686    0.0000 C   0  0  0  0  0  0  0  0  0  0  0  0
   10.5225   -2.1129    0.0000 C   0  0  0  0  0  0  0  0  0  0  0  0
    2.0000   -5.4868    0.0000 C   0  0  0  0  0  0  0  0  0  0  0  0
    7.9944    4.9124    0.0000 H   0  0  0  0  0  0  0  0  0  0  0  0
    7.8300    5.6924    0.0000 H   0  0  0  0  0  0  0  0  0  0  0  0
    5.6319    3.7201    0.0000 H   0  0  0  0  0  0  0  0  0  0  0  0
    6.3895    3.4724    0.0000 H   0  0  0  0  0  0  0  0  0  0  0  0
    7.3060    6.2764    0.0000 H   0  0  0  0  0  0  0  0  0  0  0  0
    6.5484    6.5240    0.0000 H   0  0  0  0  0  0  0  0  0  0  0  0
    4.9435    5.0840    0.0000 H   0  0  0  0  0  0  0  0  0  0  0  0
    5.1079    4.3041    0.0000 H   0  0  0  0  0  0  0  0  0  0  0  0
    8.3516    3.2176    0.0000 H   0  0  0  0  0  0  0  0  0  0  0  0
    8.1872    3.9975    0.0000 H   0  0  0  0  0  0  0  0  0  0  0  0
    5.5947    6.9009    0.0000 H   0  0  0  0  0  0  0  0  0  0  0  0
    4.7192    6.9483    0.0000 H   0  0  0  0  0  0  0  0  0  0  0  0
    4.6718    6.0728    0.0000 H   0  0  0  0  0  0  0  0  0  0  0  0
    9.2682    1.4144    0.0000 H   0  0  0  0  0  0  0  0  0  0  0  0
    9.7470    2.1489    0.0000 H   0  0  0  0  0  0  0  0  0  0  0  0
    9.0125    2.6277    0.0000 H   0  0  0  0  0  0  0  0  0  0  0  0
    9.1257    0.2478    0.0000 H   0  0  0  0  0  0  0  0  0  0  0  0
    6.4586    1.1195    0.0000 H   0  0  0  0  0  0  0  0  0  0  0  0
    7.4690   -5.8809    0.0000 H   0  0  0  0  0  0  0  0  0  0  0  0
    5.4641   -2.8668    0.0000 H   0  0  0  0  0  0  0  0  0  0  0  0
    8.6224   -1.2920    0.0000 H   0  0  0  0  0  0  0  0  0  0  0  0
    5.9553   -0.4203    0.0000 H   0  0  0  0  0  0  0  0  0  0  0  0
    5.4641   -6.1068    0.0000 H   0  0  0  0  0  0  0  0  0  0  0  0
    4.0611   -3.6768    0.0000 H   0  0  0  0  0  0  0  0  0  0  0  0
    9.0407   -3.8590    0.0000 H   0  0  0  0  0  0  0  0  0  0  0  0
    8.4621   -1.1134    0.0000 H   0  0  0  0  0  0  0  0  0  0  0  0
    9.1700   -5.0238    0.0000 H   0  0  0  0  0  0  0  0  0  0  0  0
   10.6259   -3.5249    0.0000 H   0  0  0  0  0  0  0  0  0  0  0  0
   10.0473   -0.7793    0.0000 H   0  0  0  0  0  0  0  0  0  0  0  0
   11.1292   -1.9851    0.0000 H   0  0  0  0  0  0  0  0  0  0  0  0
    1.6900   -4.9499    0.0000 H   0  0  0  0  0  0  0  0  0  0  0  0
    1.4631   -5.7968    0.0000 H   0  0  0  0  0  0  0  0  0  0  0  0
    2.3100   -6.0238    0.0000 H   0  0  0  0  0  0  0  0  0  0  0  0
  1 16  2  0  0  0  0
  2 25  1  0  0  0  0
  2 67  1  0  0  0  0
  3 36  1  0  0  0  0
  3 40  1  0  0  0  0
  4 36  2  0  0  0  0
  5 10  1  0  0  0  0
  5 11  1  0  0  0  0
  5 14  1  0  0  0  0
  6 12  1  0  0  0  0
  6 13  1  0  0  0  0
  6 15  1  0  0  0  0
  7 16  1  0  0  0  0
  7 17  1  0  0  0  0
  7 18  1  0  0  0  0
  8 21  1  0  0  0  0
  8 25  1  0  0  0  0
  8 59  1  0  0  0  0
  9 24  2  0  0  0  0
  9 26  1  0  0  0  0
 10 12  1  0  0  0  0
 10 41  1  0  0  0  0
 10 42  1  0  0  0  0
 11 13  1  0  0  0  0
 11 43  1  0  0  0  0
 11 44  1  0  0  0  0
 12 45  1  0  0  0  0
 12 46  1  0  0  0  0
 13 47  1  0  0  0  0
 13 48  1  0  0  0  0
 14 16  1  0  0  0  0
 14 49  1  0  0  0  0
 14 50  1  0  0  0  0
 15 51  1  0  0  0  0
 15 52  1  0  0  0  0
 15 53  1  0  0  0  0
 17 22  2  0  0  0  0
 17 23  1  0  0  0  0
 18 54  1  0  0  0  0
 18 55  1  0  0  0  0
 18 56  1  0  0  0  0
 19 20  1  0  0  0  0
 19 24  1  0  0  0  0
 19 25  2  0  0  0  0
 20 21  2  0  0  0  0
 20 29  1  0  0  0  0
 21 30  1  0  0  0  0
 22 27  1  0  0  0  0
 22 57  1  0  0  0  0
 23 28  2  0  0  0  0
 23 58  1  0  0  0  0
 24 31  1  0  0  0  0
 26 27  2  0  0  0  0
 26 28  1  0  0  0  0
 27 61  1  0  0  0  0
 28 62  1  0  0  0  0
 29 33  2  0  0  0  0
 29 60  1  0  0  0  0
 30 32  2  0  0  0  0
 30 63  1  0  0  0  0
 31 34  2  0  0  0  0
 31 35  1  0  0  0  0
 32 33  1  0  0  0  0
 32 36  1  0  0  0  0
 33 64  1  0  0  0  0
 34 37  1  0  0  0  0
 34 65  1  0  0  0  0
 35 38  2  0  0  0  0
 35 66  1  0  0  0  0
 37 39  2  0  0  0  0
 37 68  1  0  0  0  0
 38 39  1  0  0  0  0
 38 69  1  0  0  0  0
 39 70  1  0  0  0  0
 40 71  1  0  0  0  0
 40 72  1  0  0  0  0
 40 73  1  0  0  0  0
M  END
> <PUBCHEM_COMPOUND_CID>
135423438

> <PUBCHEM_COMPOUND_CANONICALIZED>
1

> <PUBCHEM_CACTVS_COMPLEXITY>
892

> <PUBCHEM_CACTVS_HBOND_ACCEPTOR>
7

> <PUBCHEM_CACTVS_HBOND_DONOR>
2

> <PUBCHEM_CACTVS_ROTATABLE_BOND>
8

> <PUBCHEM_CACTVS_SUBSKEYS>
AAADcfB7uAAAAAAAAAAAAAAAAAAAAWAAAAA8YMEAAAAAAFgB9AAAHgAQCAAADAjBngYyzPPJlgCoAyXyXACCgCAlIiAImSG8bN0IZvLCtbuUcQhk1hHI+Ye8yPCOwACAQAACAACAAQCAAAQAAAAAAAAAAA==

> <PUBCHEM_IUPAC_OPENEYE_NAME>
methyl 2-hydroxy-3-[N-[4-[methyl-[2-(4-methylpiperazin-1-yl)acetyl]amino]phenyl]-C-phenyl-carbonimidoyl]-1H-indole-6-carboxylate

> <PUBCHEM_IUPAC_CAS_NAME>
2-hydroxy-3-[[4-[methyl-[2-(4-methyl-1-piperazinyl)-1-oxoethyl]amino]phenyl]imino-phenylmethyl]-1H-indole-6-carboxylic acid methyl ester

> <PUBCHEM_IUPAC_NAME_MARKUP>
methyl 2-hydroxy-3-[<I>N</I>-[4-[methyl-[2-(4-methylpiperazin-1-yl)acetyl]amino]phenyl]-<I>C</I>-phenylcarbonimidoyl]-1<I>H</I>-indole-6-carboxylate

> <PUBCHEM_IUPAC_NAME>
methyl 2-hydroxy-3-[N-[4-[methyl-[2-(4-methylpiperazin-1-yl)acetyl]amino]phenyl]-C-phenylcarbonimidoyl]-1H-indole-6-carboxylate

> <PUBCHEM_IUPAC_SYSTEMATIC_NAME>
methyl 3-[N-[4-[methyl-[2-(4-methylpiperazin-1-yl)ethanoyl]amino]phenyl]-C-phenyl-carbonimidoyl]-2-oxidanyl-1H-indole-6-carboxylate

> <PUBCHEM_IUPAC_TRADITIONAL_NAME>
2-hydroxy-3-[N-[4-[methyl-[2-(4-methylpiperazino)acetyl]amino]phenyl]-C-phenyl-carbonimidoyl]-1H-indole-6-carboxylic acid methyl ester

> <PUBCHEM_IUPAC_INCHI>
InChI=1S/C31H33N5O4/c1-34-15-17-36(18-16-34)20-27(37)35(2)24-12-10-23(11-13-24)32-29(21-7-5-4-6-8-21)28-25-14-9-22(31(39)40-3)19-26(25)33-30(28)38/h4-14,19,33,38H,15-18,20H2,1-3H3

> <PUBCHEM_IUPAC_INCHIKEY>
CPMDPSXJELVGJG-UHFFFAOYSA-N

> <PUBCHEM_XLOGP3_AA>
4.3

> <PUBCHEM_EXACT_MASS>
539.25325455

> <PUBCHEM_MOLECULAR_FORMULA>
C31H33N5O4

> <PUBCHEM_MOLECULAR_WEIGHT>
539.6

> <PUBCHEM_OPENEYE_CAN_SMILES>
CN1CCN(CC1)CC(=O)N(C)C2=CC=C(C=C2)N=C(C3=CC=CC=C3)C4=C(NC5=C4C=CC(=C5)C(=O)OC)O

> <PUBCHEM_OPENEYE_ISO_SMILES>
CN1CCN(CC1)CC(=O)N(C)C2=CC=C(C=C2)N=C(C3=CC=CC=C3)C4=C(NC5=C4C=CC(=C5)C(=O)OC)O

> <PUBCHEM_CACTVS_TPSA>
102

> <PUBCHEM_MONOISOTOPIC_WEIGHT>
539.25325455

> <PUBCHEM_TOTAL_CHARGE>
0

> <PUBCHEM_HEAVY_ATOM_COUNT>
40

> <PUBCHEM_ATOM_DEF_STEREO_COUNT>
0

> <PUBCHEM_ATOM_UDEF_STEREO_COUNT>
0

> <PUBCHEM_BOND_DEF_STEREO_COUNT>
0

> <PUBCHEM_BOND_UDEF_STEREO_COUNT>
0

> <PUBCHEM_ISOTOPIC_ATOM_COUNT>
0

> <PUBCHEM_COMPONENT_COUNT>
1

> <PUBCHEM_CACTVS_TAUTO_COUNT>
-1

> <PUBCHEM_COORDINATE_TYPE>
1
5
255

> <PUBCHEM_BONDANNOTATIONS>
17  22  8
17  23  8
19  20  8
19  25  8
20  21  8
20  29  8
21  30  8
22  27  8
23  28  8
26  27  8
26  28  8
29  33  8
30  32  8
31  34  8
31  35  8
32  33  8
34  37  8
35  38  8
37  39  8
38  39  8
8  21  8
8  25  8

$$$$
25141092
  -OEChem-11282412102D

 75 80  0     0  0  0  0  0  0999 V2000
    3.7320   -5.3076    0.0000 F   0  0  0  0  0  0  0  0  0  0  0  0
    2.0000   -2.3076    0.0000 F   0  0  0  0  0  0  0  0  0  0  0  0
    6.9584    2.3754    0.0000 O   0  0  0  0  0  0  0  0  0  0  0  0
   10.9654   -2.0904    0.0000 O   0  0  0  0  0  0  0  0  0  0  0  0
   11.5402    2.4560    0.0000 N   0  0  0  0  0  0  0  0  0  0  0  0
   12.1615    4.3570    0.0000 N   0  0  0  0  0  0  0  0  0  0  0  0
    8.9619    0.1425    0.0000 N   0  0  0  0  0  0  0  0  0  0  0  0
    9.3191   -1.5523    0.0000 N   0  0  0  0  0  0  0  0  0  0  0  0
    9.0084   -4.1123    0.0000 N   0  0  0  0  0  0  0  0  0  0  0  0
    9.5920   -3.3076    0.0000 N   0  0  0  0  0  0  0  0  0  0  0  0
    8.2940    0.8868    0.0000 C   0  0  0  0  0  0  0  0  0  0  0  0
    7.3155    0.6806    0.0000 C   0  0  0  0  0  0  0  0  0  0  0  0
    8.6047    1.8373    0.0000 C   0  0  0  0  0  0  0  0  0  0  0  0
   10.8724    3.2003    0.0000 C   0  0  0  0  0  0  0  0  0  0  0  0
   12.5187    2.6622    0.0000 C   0  0  0  0  0  0  0  0  0  0  0  0
   11.1830    4.1508    0.0000 C   0  0  0  0  0  0  0  0  0  0  0  0
   12.8294    3.6127    0.0000 C   0  0  0  0  0  0  0  0  0  0  0  0
   11.2296    1.5055    0.0000 C   0  0  0  0  0  0  0  0  0  0  0  0
    6.6477    1.4249    0.0000 C   0  0  0  0  0  0  0  0  0  0  0  0
    7.9368    2.5816    0.0000 C   0  0  0  0  0  0  0  0  0  0  0  0
    9.9404    0.3487    0.0000 C   0  0  0  0  0  0  0  0  0  0  0  0
   10.2510    1.2993    0.0000 C   0  0  0  0  0  0  0  0  0  0  0  0
   10.6082   -0.3956    0.0000 C   0  0  0  0  0  0  0  0  0  0  0  0
   11.8974    0.7612    0.0000 C   0  0  0  0  0  0  0  0  0  0  0  0
   12.4722    5.3076    0.0000 C   0  0  0  0  0  0  0  0  0  0  0  0
   11.5867   -0.1893    0.0000 C   0  0  0  0  0  0  0  0  0  0  0  0
   10.2976   -1.3461    0.0000 C   0  0  0  0  0  0  0  0  0  0  0  0
    9.0084   -2.5028    0.0000 C   0  0  0  0  0  0  0  0  0  0  0  0
    8.0622   -2.8076    0.0000 C   0  0  0  0  0  0  0  0  0  0  0  0
    8.0622   -3.8076    0.0000 C   0  0  0  0  0  0  0  0  0  0  0  0
    7.1962   -2.3076    0.0000 C   0  0  0  0  0  0  0  0  0  0  0  0
    6.3301   -2.8076    0.0000 C   0  0  0  0  0  0  0  0  0  0  0  0
    5.4641   -2.3076    0.0000 C   0  0  0  0  0  0  0  0  0  0  0  0
    7.1962   -4.3076    0.0000 C   0  0  0  0  0  0  0  0  0  0  0  0
    6.3301   -3.8076    0.0000 C   0  0  0  0  0  0  0  0  0  0  0  0
    4.5981   -2.8076    0.0000 C   0  0  0  0  0  0  0  0  0  0  0  0
    3.7320   -2.3076    0.0000 C   0  0  0  0  0  0  0  0  0  0  0  0
    4.5981   -3.8076    0.0000 C   0  0  0  0  0  0  0  0  0  0  0  0
    3.7320   -4.3076    0.0000 C   0  0  0  0  0  0  0  0  0  0  0  0
    2.8660   -2.8076    0.0000 C   0  0  0  0  0  0  0  0  0  0  0  0
    2.8660   -3.8076    0.0000 C   0  0  0  0  0  0  0  0  0  0  0  0
    8.1014    0.2975    0.0000 H   0  0  0  0  0  0  0  0  0  0  0  0
    6.7892    0.3530    0.0000 H   0  0  0  0  0  0  0  0  0  0  0  0
    7.5468    0.1053    0.0000 H   0  0  0  0  0  0  0  0  0  0  0  0
    9.1516    1.5453    0.0000 H   0  0  0  0  0  0  0  0  0  0  0  0
    8.9872    2.3252    0.0000 H   0  0  0  0  0  0  0  0  0  0  0  0
   10.3254    3.4923    0.0000 H   0  0  0  0  0  0  0  0  0  0  0  0
   10.4898    2.7124    0.0000 H   0  0  0  0  0  0  0  0  0  0  0  0
   12.5393    2.0426    0.0000 H   0  0  0  0  0  0  0  0  0  0  0  0
   13.1325    2.5749    0.0000 H   0  0  0  0  0  0  0  0  0  0  0  0
   11.1625    4.7705    0.0000 H   0  0  0  0  0  0  0  0  0  0  0  0
   10.5692    4.2382    0.0000 H   0  0  0  0  0  0  0  0  0  0  0  0
   13.3763    3.3207    0.0000 H   0  0  0  0  0  0  0  0  0  0  0  0
   13.2119    4.1006    0.0000 H   0  0  0  0  0  0  0  0  0  0  0  0
    8.7693   -0.4468    0.0000 H   0  0  0  0  0  0  0  0  0  0  0  0
    6.1008    1.7169    0.0000 H   0  0  0  0  0  0  0  0  0  0  0  0
    6.2651    0.9370    0.0000 H   0  0  0  0  0  0  0  0  0  0  0  0
    8.4632    2.9093    0.0000 H   0  0  0  0  0  0  0  0  0  0  0  0
    7.7056    3.1569    0.0000 H   0  0  0  0  0  0  0  0  0  0  0  0
    9.8370    1.7607    0.0000 H   0  0  0  0  0  0  0  0  0  0  0  0
   12.5041    0.8890    0.0000 H   0  0  0  0  0  0  0  0  0  0  0  0
   13.0615    5.1150    0.0000 H   0  0  0  0  0  0  0  0  0  0  0  0
   12.6648    5.8969    0.0000 H   0  0  0  0  0  0  0  0  0  0  0  0
   11.8829    5.5002    0.0000 H   0  0  0  0  0  0  0  0  0  0  0  0
   12.0008   -0.6508    0.0000 H   0  0  0  0  0  0  0  0  0  0  0  0
    8.9050   -1.0908    0.0000 H   0  0  0  0  0  0  0  0  0  0  0  0
    7.1962   -1.6876    0.0000 H   0  0  0  0  0  0  0  0  0  0  0  0
    5.8626   -1.8326    0.0000 H   0  0  0  0  0  0  0  0  0  0  0  0
    5.0656   -1.8326    0.0000 H   0  0  0  0  0  0  0  0  0  0  0  0
    9.2010   -4.7016    0.0000 H   0  0  0  0  0  0  0  0  0  0  0  0
    7.1962   -4.9276    0.0000 H   0  0  0  0  0  0  0  0  0  0  0  0
    5.7932   -4.1176    0.0000 H   0  0  0  0  0  0  0  0  0  0  0  0
    3.7320   -1.6876    0.0000 H   0  0  0  0  0  0  0  0  0  0  0  0
    5.1350   -4.1176    0.0000 H   0  0  0  0  0  0  0  0  0  0  0  0
    2.3291   -4.1176    0.0000 H   0  0  0  0  0  0  0  0  0  0  0  0
  1 39  1  0  0  0  0
  2 40  1  0  0  0  0
  3 19  1  0  0  0  0
  3 20  1  0  0  0  0
  4 27  2  0  0  0  0
  5 14  1  0  0  0  0
  5 15  1  0  0  0  0
  5 18  1  0  0  0  0
  6 16  1  0  0  0  0
  6 17  1  0  0  0  0
  6 25  1  0  0  0  0
  7 11  1  0  0  0  0
  7 21  1  0  0  0  0
  7 55  1  0  0  0  0
  8 27  1  0  0  0  0
  8 28  1  0  0  0  0
  8 66  1  0  0  0  0
  9 10  1  0  0  0  0
  9 30  1  0  0  0  0
  9 70  1  0  0  0  0
 10 28  2  0  0  0  0
 11 12  1  0  0  0  0
 11 13  1  0  0  0  0
 11 42  1  0  0  0  0
 12 19  1  0  0  0  0
 12 43  1  0  0  0  0
 12 44  1  0  0  0  0
 13 20  1  0  0  0  0
 13 45  1  0  0  0  0
 13 46  1  0  0  0  0
 14 16  1  0  0  0  0
 14 47  1  0  0  0  0
 14 48  1  0  0  0  0
 15 17  1  0  0  0  0
 15 49  1  0  0  0  0
 15 50  1  0  0  0  0
 16 51  1  0  0  0  0
 16 52  1  0  0  0  0
 17 53  1  0  0  0  0
 17 54  1  0  0  0  0
 18 22  2  0  0  0  0
 18 24  1  0  0  0  0
 19 56  1  0  0  0  0
 19 57  1  0  0  0  0
 20 58  1  0  0  0  0
 20 59  1  0  0  0  0
 21 22  1  0  0  0  0
 21 23  2  0  0  0  0
 22 60  1  0  0  0  0
 23 26  1  0  0  0  0
 23 27  1  0  0  0  0
 24 26  2  0  0  0  0
 24 61  1  0  0  0  0
 25 62  1  0  0  0  0
 25 63  1  0  0  0  0
 25 64  1  0  0  0  0
 26 65  1  0  0  0  0
 28 29  1  0  0  0  0
 29 30  2  0  0  0  0
 29 31  1  0  0  0  0
 30 34  1  0  0  0  0
 31 32  2  0  0  0  0
 31 67  1  0  0  0  0
 32 33  1  0  0  0  0
 32 35  1  0  0  0  0
 33 36  1  0  0  0  0
 33 68  1  0  0  0  0
 33 69  1  0  0  0  0
 34 35  2  0  0  0  0
 34 71  1  0  0  0  0
 35 72  1  0  0  0  0
 36 37  2  0  0  0  0
 36 38  1  0  0  0  0
 37 40  1  0  0  0  0
 37 73  1  0  0  0  0
 38 39  2  0  0  0  0
 38 74  1  0  0  0  0
 39 41  1  0  0  0  0
 40 41  2  0  0  0  0
 41 75  1  0  0  0  0
M  END
> <PUBCHEM_COMPOUND_CID>
25141092

> <PUBCHEM_COMPOUND_CANONICALIZED>
1

> <PUBCHEM_CACTVS_COMPLEXITY>
847

> <PUBCHEM_CACTVS_HBOND_ACCEPTOR>
8

> <PUBCHEM_CACTVS_HBOND_DONOR>
3

> <PUBCHEM_CACTVS_ROTATABLE_BOND>
7

> <PUBCHEM_CACTVS_SUBSKEYS>
AAADcfB7sYAAAAAAAAAAAAAAAAAAAWAAAAA8aMECAAAAAFgB9AAAHwAYAAAADCjhng4z8PPjBACqAydycACSBAIlAgAduaE4ZNiIYLrA3dGWpYh2nQLIyceYicCeCAACAAQCAAAQAAQACAQAAAAAAAAAAA==

> <PUBCHEM_IUPAC_OPENEYE_NAME>
N-[5-[(3,5-difluorophenyl)methyl]-1H-indazol-3-yl]-4-(4-methylpiperazin-1-yl)-2-(tetrahydropyran-4-ylamino)benzamide

> <PUBCHEM_IUPAC_CAS_NAME>
N-[5-[(3,5-difluorophenyl)methyl]-1H-indazol-3-yl]-4-(4-methyl-1-piperazinyl)-2-(4-oxanylamino)benzamide

> <PUBCHEM_IUPAC_NAME_MARKUP>
<I>N</I>-[5-[(3,5-difluorophenyl)methyl]-1<I>H</I>-indazol-3-yl]-4-(4-methylpiperazin-1-yl)-2-(oxan-4-ylamino)benzamide

> <PUBCHEM_IUPAC_NAME>
N-[5-[(3,5-difluorophenyl)methyl]-1H-indazol-3-yl]-4-(4-methylpiperazin-1-yl)-2-(oxan-4-ylamino)benzamide

> <PUBCHEM_IUPAC_SYSTEMATIC_NAME>
N-[5-[[3,5-bis(fluoranyl)phenyl]methyl]-1H-indazol-3-yl]-4-(4-methylpiperazin-1-yl)-2-(oxan-4-ylamino)benzamide

> <PUBCHEM_IUPAC_TRADITIONAL_NAME>
N-[5-(3,5-difluorobenzyl)-1H-indazol-3-yl]-4-(4-methylpiperazino)-2-(tetrahydropyran-4-ylamino)benzamide

> <PUBCHEM_IUPAC_INCHI>
InChI=1S/C31H34F2N6O2/c1-38-8-10-39(11-9-38)25-3-4-26(29(19-25)34-24-6-12-41-13-7-24)31(40)35-30-27-17-20(2-5-28(27)36-37-30)14-21-15-22(32)18-23(33)16-21/h2-5,15-19,24,34H,6-14H2,1H3,(H2,35,36,37,40)

> <PUBCHEM_IUPAC_INCHIKEY>
HAYYBYPASCDWEQ-UHFFFAOYSA-N

> <PUBCHEM_XLOGP3_AA>
5.7

> <PUBCHEM_EXACT_MASS>
560.27113067

> <PUBCHEM_MOLECULAR_FORMULA>
C31H34F2N6O2

> <PUBCHEM_MOLECULAR_WEIGHT>
560.6

> <PUBCHEM_OPENEYE_CAN_SMILES>
CN1CCN(CC1)C2=CC(=C(C=C2)C(=O)NC3=NNC4=C3C=C(C=C4)CC5=CC(=CC(=C5)F)F)NC6CCOCC6

> <PUBCHEM_OPENEYE_ISO_SMILES>
CN1CCN(CC1)C2=CC(=C(C=C2)C(=O)NC3=NNC4=C3C=C(C=C4)CC5=CC(=CC(=C5)F)F)NC6CCOCC6

> <PUBCHEM_CACTVS_TPSA>
85.5

> <PUBCHEM_MONOISOTOPIC_WEIGHT>
560.27113067

> <PUBCHEM_TOTAL_CHARGE>
0

> <PUBCHEM_HEAVY_ATOM_COUNT>
41

> <PUBCHEM_ATOM_DEF_STEREO_COUNT>
0

> <PUBCHEM_ATOM_UDEF_STEREO_COUNT>
0

> <PUBCHEM_BOND_DEF_STEREO_COUNT>
0

> <PUBCHEM_BOND_UDEF_STEREO_COUNT>
0

> <PUBCHEM_ISOTOPIC_ATOM_COUNT>
0

> <PUBCHEM_COMPONENT_COUNT>
1

> <PUBCHEM_CACTVS_TAUTO_COUNT>
-1

> <PUBCHEM_COORDINATE_TYPE>
1
5
255

> <PUBCHEM_BONDANNOTATIONS>
10  28  8
18  22  8
18  24  8
21  22  8
21  23  8
23  26  8
24  26  8
28  29  8
29  30  8
29  31  8
30  34  8
31  32  8
32  35  8
34  35  8
36  37  8
36  38  8
37  40  8
38  39  8
39  41  8
40  41  8
9  10  8
9  30  8

$$$$
71731823
  -OEChem-11282412102D

 49 52  0     1  0  0  0  0  0999 V2000
    2.0000    2.1835    0.0000 F   0  0  0  0  0  0  0  0  0  0  0  0
    5.9036    2.1126    0.0000 O   0  0  0  0  0  0  0  0  0  0  0  0
    5.7520   -0.1853    0.0000 O   0  0  0  0  0  0  0  0  0  0  0  0
    5.1448   -1.6512    0.0000 N   0  0  0  0  0  0  0  0  0  0  0  0
    7.7840   -2.4896    0.0000 N   0  0  0  0  0  0  0  0  0  0  0  0
    6.8144   -2.2116    0.0000 N   0  0  0  0  0  0  0  0  0  0  0  0
    8.5017    1.6126    0.0000 N   0  0  0  0  0  0  0  0  0  0  0  0
    7.6356    3.1126    0.0000 N   0  0  0  0  0  0  0  0  0  0  0  0
   10.3070   -1.4481    0.0000 N   0  0  0  0  0  0  0  0  0  0  0  0
    6.1107   -1.9101    0.0000 C   0  0  0  0  0  0  0  0  0  0  0  0
    6.8178   -1.2030    0.0000 C   0  0  0  0  0  0  0  0  0  0  0  0
    7.6356   -0.8874    0.0000 C   0  0  0  0  0  0  0  0  0  0  0  0
    5.4036    1.2465    0.0000 C   0  0  1  0  0  0  0  0  0  0  0  0
    4.4377    0.9877    0.0000 C   0  0  0  0  0  0  0  0  0  0  0  0
    4.1788    0.0218    0.0000 C   0  0  0  0  0  0  0  0  0  0  0  0
    7.6356    0.1126    0.0000 C   0  0  0  0  0  0  0  0  0  0  0  0
    4.8860   -0.6853    0.0000 C   0  0  0  0  0  0  0  0  0  0  0  0
    8.3156   -1.6324    0.0000 C   0  0  0  0  0  0  0  0  0  0  0  0
    6.7696    1.6126    0.0000 C   0  0  0  0  0  0  0  0  0  0  0  0
    6.7696    0.6126    0.0000 C   0  0  0  0  0  0  0  0  0  0  0  0
    6.0124    0.4532    0.0000 C   0  0  0  0  0  0  0  0  0  0  0  0
    3.7126    1.7355    0.0000 C   0  0  0  0  0  0  0  0  0  0  0  0
    3.1770   -0.2633    0.0000 C   0  0  0  0  0  0  0  0  0  0  0  0
    4.4377   -2.3584    0.0000 C   0  0  0  0  0  0  0  0  0  0  0  0
    8.5017    0.6126    0.0000 C   0  0  0  0  0  0  0  0  0  0  0  0
    7.6356    2.1126    0.0000 C   0  0  0  0  0  0  0  0  0  0  0  0
    2.7044    1.4737    0.0000 C   0  0  0  0  0  0  0  0  0  0  0  0
    2.4348    0.4676    0.0000 C   0  0  0  0  0  0  0  0  0  0  0  0
    8.1439   -3.4226    0.0000 C   0  0  0  0  0  0  0  0  0  0  0  0
    9.3113   -1.5403    0.0000 C   0  0  0  0  0  0  0  0  0  0  0  0
    5.8487   -2.4720    0.0000 H   0  0  0  0  0  0  0  0  0  0  0  0
    6.6186   -2.2657    0.0000 H   0  0  0  0  0  0  0  0  0  0  0  0
    6.0223    1.2871    0.0000 H   0  0  0  0  0  0  0  0  0  0  0  0
    6.2327    0.3026    0.0000 H   0  0  0  0  0  0  0  0  0  0  0  0
    5.5205    0.0757    0.0000 H   0  0  0  0  0  0  0  0  0  0  0  0
    6.3898   -0.0387    0.0000 H   0  0  0  0  0  0  0  0  0  0  0  0
    6.5042    0.8306    0.0000 H   0  0  0  0  0  0  0  0  0  0  0  0
    3.8799    2.3325    0.0000 H   0  0  0  0  0  0  0  0  0  0  0  0
    3.0234   -0.8640    0.0000 H   0  0  0  0  0  0  0  0  0  0  0  0
    3.9993   -1.9199    0.0000 H   0  0  0  0  0  0  0  0  0  0  0  0
    3.9993   -2.7968    0.0000 H   0  0  0  0  0  0  0  0  0  0  0  0
    4.8761   -2.7968    0.0000 H   0  0  0  0  0  0  0  0  0  0  0  0
    9.0386    0.3026    0.0000 H   0  0  0  0  0  0  0  0  0  0  0  0
    1.8365    0.3048    0.0000 H   0  0  0  0  0  0  0  0  0  0  0  0
    7.5654   -3.6457    0.0000 H   0  0  0  0  0  0  0  0  0  0  0  0
    8.3671   -4.0010    0.0000 H   0  0  0  0  0  0  0  0  0  0  0  0
    8.7223   -3.1994    0.0000 H   0  0  0  0  0  0  0  0  0  0  0  0
    8.1726    3.4226    0.0000 H   0  0  0  0  0  0  0  0  0  0  0  0
    7.0987    3.4226    0.0000 H   0  0  0  0  0  0  0  0  0  0  0  0
  1 27  1  0  0  0  0
  2 13  1  0  0  0  0
  2 19  1  0  0  0  0
  3 17  2  0  0  0  0
  4 10  1  0  0  0  0
  4 17  1  0  0  0  0
  4 24  1  0  0  0  0
  5  6  1  0  0  0  0
  5 18  1  0  0  0  0
  5 29  1  0  0  0  0
  6 11  2  0  0  0  0
  7 25  2  0  0  0  0
  7 26  1  0  0  0  0
  8 26  1  0  0  0  0
  8 48  1  0  0  0  0
  8 49  1  0  0  0  0
  9 30  3  0  0  0  0
 10 11  1  0  0  0  0
 10 31  1  0  0  0  0
 10 32  1  0  0  0  0
 11 12  1  0  0  0  0
 12 16  1  0  0  0  0
 12 18  2  0  0  0  0
 13 14  1  0  0  0  0
 13 21  1  6  0  0  0
 13 33  1  0  0  0  0
 14 15  2  0  0  0  0
 14 22  1  0  0  0  0
 15 17  1  0  0  0  0
 15 23  1  0  0  0  0
 16 20  2  0  0  0  0
 16 25  1  0  0  0  0
 18 30  1  0  0  0  0
 19 20  1  0  0  0  0
 19 26  2  0  0  0  0
 20 34  1  0  0  0  0
 21 35  1  0  0  0  0
 21 36  1  0  0  0  0
 21 37  1  0  0  0  0
 22 27  2  0  0  0  0
 22 38  1  0  0  0  0
 23 28  2  0  0  0  0
 23 39  1  0  0  0  0
 24 40  1  0  0  0  0
 24 41  1  0  0  0  0
 24 42  1  0  0  0  0
 25 43  1  0  0  0  0
 27 28  1  0  0  0  0
 28 44  1  0  0  0  0
 29 45  1  0  0  0  0
 29 46  1  0  0  0  0
 29 47  1  0  0  0  0
M  END
> <PUBCHEM_COMPOUND_CID>
71731823

> <PUBCHEM_COMPOUND_CANONICALIZED>
1

> <PUBCHEM_CACTVS_COMPLEXITY>
700

> <PUBCHEM_CACTVS_HBOND_ACCEPTOR>
7

> <PUBCHEM_CACTVS_HBOND_DONOR>
1

> <PUBCHEM_CACTVS_ROTATABLE_BOND>
0

> <PUBCHEM_CACTVS_SUBSKEYS>
AAADceB7sQAAAAAAAAAAAAAAAAAAAWAAAAA8QAAAAAAAAAAB8AAAHwAYAAAADBzhng4/tpNIFAC6Bzd3dASyjCk14CAY2CE/TNiO5vLE9duXvSjkzhPY6a+62KOOgAAAAAAQAAAAAAAAACAAAAAAAAAAAA==

> <PUBCHEM_IUPAC_OPENEYE_NAME>
(16R)-19-amino-13-fluoro-4,8,16-trimethyl-9-oxo-17-oxa-4,5,8,20-tetrazatetracyclo[16.3.1.02,6.010,15]docosa-1(22),2,5,10(15),11,13,18,20-octaene-3-carbonitrile

> <PUBCHEM_IUPAC_CAS_NAME>
(16R)-19-amino-13-fluoro-4,8,16-trimethyl-9-oxo-17-oxa-4,5,8,20-tetrazatetracyclo[16.3.1.02,6.010,15]docosa-1(22),2,5,10(15),11,13,18,20-octaene-3-carbonitrile

> <PUBCHEM_IUPAC_NAME_MARKUP>
(16<I>R</I>)-19-amino-13-fluoro-4,8,16-trimethyl-9-oxo-17-oxa-4,5,8,20-tetrazatetracyclo[16.3.1.0<SUP>2,6</SUP>.0<SUP>10,15</SUP>]docosa-1(22),2,5,10(15),11,13,18,20-octaene-3-carbonitrile

> <PUBCHEM_IUPAC_NAME>
(16R)-19-amino-13-fluoro-4,8,16-trimethyl-9-oxo-17-oxa-4,5,8,20-tetrazatetracyclo[16.3.1.02,6.010,15]docosa-1(22),2,5,10(15),11,13,18,20-octaene-3-carbonitrile

> <PUBCHEM_IUPAC_SYSTEMATIC_NAME>
(16R)-19-azanyl-13-fluoranyl-4,8,16-trimethyl-9-oxidanylidene-17-oxa-4,5,8,20-tetrazatetracyclo[16.3.1.02,6.010,15]docosa-1(22),2,5,10(15),11,13,18,20-octaene-3-carbonitrile

> <PUBCHEM_IUPAC_TRADITIONAL_NAME>
(16R)-19-amino-13-fluoro-9-keto-4,8,16-trimethyl-17-oxa-4,5,8,20-tetrazatetracyclo[16.3.1.02,6.010,15]docosa-1(22),2,5,10(15),11,13,18,20-octaene-3-carbonitrile

> <PUBCHEM_IUPAC_INCHI>
InChI=1S/C21H19FN6O2/c1-11-15-7-13(22)4-5-14(15)21(29)27(2)10-16-19(17(8-23)28(3)26-16)12-6-18(30-11)20(24)25-9-12/h4-7,9,11H,10H2,1-3H3,(H2,24,25)/t11-/m1/s1

> <PUBCHEM_IUPAC_INCHIKEY>
IIXWYSCJSQVBQM-LLVKDONJSA-N

> <PUBCHEM_XLOGP3_AA>
1.5

> <PUBCHEM_EXACT_MASS>
406.15535203

> <PUBCHEM_MOLECULAR_FORMULA>
C21H19FN6O2

> <PUBCHEM_MOLECULAR_WEIGHT>
406.4

> <PUBCHEM_OPENEYE_CAN_SMILES>
CC1C2=C(C=CC(=C2)F)C(=O)N(CC3=NN(C(=C3C4=CC(=C(N=C4)N)O1)C#N)C)C

> <PUBCHEM_OPENEYE_ISO_SMILES>
C[C@@H]1C2=C(C=CC(=C2)F)C(=O)N(CC3=NN(C(=C3C4=CC(=C(N=C4)N)O1)C#N)C)C

> <PUBCHEM_CACTVS_TPSA>
110

> <PUBCHEM_MONOISOTOPIC_WEIGHT>
406.15535203

> <PUBCHEM_TOTAL_CHARGE>
0

> <PUBCHEM_HEAVY_ATOM_COUNT>
30

> <PUBCHEM_ATOM_DEF_STEREO_COUNT>
1

> <PUBCHEM_ATOM_UDEF_STEREO_COUNT>
0

> <PUBCHEM_BOND_DEF_STEREO_COUNT>
0

> <PUBCHEM_BOND_UDEF_STEREO_COUNT>
0

> <PUBCHEM_ISOTOPIC_ATOM_COUNT>
0

> <PUBCHEM_COMPONENT_COUNT>
1

> <PUBCHEM_CACTVS_TAUTO_COUNT>
-1

> <PUBCHEM_COORDINATE_TYPE>
1
5
255

> <PUBCHEM_BONDANNOTATIONS>
11  12  8
12  18  8
13  21  6
14  15  8
14  22  8
15  23  8
16  20  8
16  25  8
19  20  8
19  26  8
22  27  8
23  28  8
27  28  8
5  18  8
5  6  8
6  11  8
7  25  8
7  26  8

$$$$
68165256
  -OEChem-11282412102D

 79 83  0     0  0  0  0  0  0999 V2000
    8.0622    6.0000    0.0000 Cl  0  0  0  0  0  0  0  0  0  0  0  0
    9.7942    3.0000    0.0000 P   0  0  0  0  0  0  0  0  0  0  0  0
    2.8660    3.0000    0.0000 O   0  0  0  0  0  0  0  0  0  0  0  0
    8.7942    3.0000    0.0000 O   0  0  0  0  0  0  0  0  0  0  0  0
    4.5981   -3.0000    0.0000 N   0  0  0  0  0  0  0  0  0  0  0  0
    4.5981   -0.0000    0.0000 N   0  0  0  0  0  0  0  0  0  0  0  0
    4.5981   -5.0000    0.0000 N   0  0  0  0  0  0  0  0  0  0  0  0
    4.5981    4.0000    0.0000 N   0  0  0  0  0  0  0  0  0  0  0  0
    6.3301    4.0000    0.0000 N   0  0  0  0  0  0  0  0  0  0  0  0
    5.4641    5.5000    0.0000 N   0  0  0  0  0  0  0  0  0  0  0  0
    8.0622    4.0000    0.0000 N   0  0  0  0  0  0  0  0  0  0  0  0
    4.5981   -2.0000    0.0000 C   0  0  0  0  0  0  0  0  0  0  0  0
    3.7320   -1.5000    0.0000 C   0  0  0  0  0  0  0  0  0  0  0  0
    5.4641   -1.5000    0.0000 C   0  0  0  0  0  0  0  0  0  0  0  0
    3.7320   -0.5000    0.0000 C   0  0  0  0  0  0  0  0  0  0  0  0
    5.4641   -0.5000    0.0000 C   0  0  0  0  0  0  0  0  0  0  0  0
    5.4641   -3.5000    0.0000 C   0  0  0  0  0  0  0  0  0  0  0  0
    3.7320   -3.5000    0.0000 C   0  0  0  0  0  0  0  0  0  0  0  0
    5.4641   -4.5000    0.0000 C   0  0  0  0  0  0  0  0  0  0  0  0
    3.7320   -4.5000    0.0000 C   0  0  0  0  0  0  0  0  0  0  0  0
    4.5981    1.0000    0.0000 C   0  0  0  0  0  0  0  0  0  0  0  0
    4.5981   -6.0000    0.0000 C   0  0  0  0  0  0  0  0  0  0  0  0
    3.7320    1.5000    0.0000 C   0  0  0  0  0  0  0  0  0  0  0  0
    5.4641    1.5000    0.0000 C   0  0  0  0  0  0  0  0  0  0  0  0
    3.7320    2.5000    0.0000 C   0  0  0  0  0  0  0  0  0  0  0  0
    5.4641    2.5000    0.0000 C   0  0  0  0  0  0  0  0  0  0  0  0
    4.5981    3.0000    0.0000 C   0  0  0  0  0  0  0  0  0  0  0  0
    5.4641    4.5000    0.0000 C   0  0  0  0  0  0  0  0  0  0  0  0
    2.0000    2.5000    0.0000 C   0  0  0  0  0  0  0  0  0  0  0  0
    9.7942    4.0000    0.0000 C   0  0  0  0  0  0  0  0  0  0  0  0
    8.9282    4.5000    0.0000 C   0  0  0  0  0  0  0  0  0  0  0  0
    7.1962    4.5000    0.0000 C   0  0  0  0  0  0  0  0  0  0  0  0
    9.7942    2.0000    0.0000 C   0  0  0  0  0  0  0  0  0  0  0  0
   10.7942    3.0000    0.0000 C   0  0  0  0  0  0  0  0  0  0  0  0
   10.6603    4.5000    0.0000 C   0  0  0  0  0  0  0  0  0  0  0  0
    7.1962    5.5000    0.0000 C   0  0  0  0  0  0  0  0  0  0  0  0
    6.3301    6.0000    0.0000 C   0  0  0  0  0  0  0  0  0  0  0  0
    8.9282    5.5000    0.0000 C   0  0  0  0  0  0  0  0  0  0  0  0
   10.6603    5.5000    0.0000 C   0  0  0  0  0  0  0  0  0  0  0  0
    9.7942    6.0000    0.0000 C   0  0  0  0  0  0  0  0  0  0  0  0
    5.1350   -2.3100    0.0000 H   0  0  0  0  0  0  0  0  0  0  0  0
    3.1215   -1.3923    0.0000 H   0  0  0  0  0  0  0  0  0  0  0  0
    3.5200   -2.0826    0.0000 H   0  0  0  0  0  0  0  0  0  0  0  0
    5.6762   -2.0826    0.0000 H   0  0  0  0  0  0  0  0  0  0  0  0
    6.0747   -1.3923    0.0000 H   0  0  0  0  0  0  0  0  0  0  0  0
    3.5200    0.0826    0.0000 H   0  0  0  0  0  0  0  0  0  0  0  0
    3.1215   -0.6077    0.0000 H   0  0  0  0  0  0  0  0  0  0  0  0
    6.0747   -0.6077    0.0000 H   0  0  0  0  0  0  0  0  0  0  0  0
    5.6762    0.0826    0.0000 H   0  0  0  0  0  0  0  0  0  0  0  0
    6.0747   -3.6077    0.0000 H   0  0  0  0  0  0  0  0  0  0  0  0
    5.6762   -2.9174    0.0000 H   0  0  0  0  0  0  0  0  0  0  0  0
    3.5200   -2.9174    0.0000 H   0  0  0  0  0  0  0  0  0  0  0  0
    3.1215   -3.6077    0.0000 H   0  0  0  0  0  0  0  0  0  0  0  0
    5.6762   -5.0826    0.0000 H   0  0  0  0  0  0  0  0  0  0  0  0
    6.0747   -4.3923    0.0000 H   0  0  0  0  0  0  0  0  0  0  0  0
    3.1215   -4.3923    0.0000 H   0  0  0  0  0  0  0  0  0  0  0  0
    3.5200   -5.0826    0.0000 H   0  0  0  0  0  0  0  0  0  0  0  0
    3.9781   -6.0000    0.0000 H   0  0  0  0  0  0  0  0  0  0  0  0
    4.5981   -6.6200    0.0000 H   0  0  0  0  0  0  0  0  0  0  0  0
    5.2181   -6.0000    0.0000 H   0  0  0  0  0  0  0  0  0  0  0  0
    3.1951    1.1900    0.0000 H   0  0  0  0  0  0  0  0  0  0  0  0
    6.0010    1.1900    0.0000 H   0  0  0  0  0  0  0  0  0  0  0  0
    6.0010    2.8100    0.0000 H   0  0  0  0  0  0  0  0  0  0  0  0
    4.0611    4.3100    0.0000 H   0  0  0  0  0  0  0  0  0  0  0  0
    1.6900    3.0369    0.0000 H   0  0  0  0  0  0  0  0  0  0  0  0
    1.4631    2.1900    0.0000 H   0  0  0  0  0  0  0  0  0  0  0  0
    2.3100    1.9631    0.0000 H   0  0  0  0  0  0  0  0  0  0  0  0
    8.0622    3.3800    0.0000 H   0  0  0  0  0  0  0  0  0  0  0  0
    9.1742    2.0000    0.0000 H   0  0  0  0  0  0  0  0  0  0  0  0
    9.7942    1.3800    0.0000 H   0  0  0  0  0  0  0  0  0  0  0  0
   10.4142    2.0000    0.0000 H   0  0  0  0  0  0  0  0  0  0  0  0
   10.7942    2.3800    0.0000 H   0  0  0  0  0  0  0  0  0  0  0  0
   11.4142    3.0000    0.0000 H   0  0  0  0  0  0  0  0  0  0  0  0
   10.7942    3.6200    0.0000 H   0  0  0  0  0  0  0  0  0  0  0  0
   11.1972    4.1900    0.0000 H   0  0  0  0  0  0  0  0  0  0  0  0
    8.3913    5.8100    0.0000 H   0  0  0  0  0  0  0  0  0  0  0  0
    6.3301    6.6200    0.0000 H   0  0  0  0  0  0  0  0  0  0  0  0
   11.1972    5.8100    0.0000 H   0  0  0  0  0  0  0  0  0  0  0  0
    9.7942    6.6200    0.0000 H   0  0  0  0  0  0  0  0  0  0  0  0
  1 36  1  0  0  0  0
  2  4  2  0  0  0  0
  2 30  1  0  0  0  0
  2 33  1  0  0  0  0
  2 34  1  0  0  0  0
  3 25  1  0  0  0  0
  3 29  1  0  0  0  0
  5 12  1  0  0  0  0
  5 17  1  0  0  0  0
  5 18  1  0  0  0  0
  6 15  1  0  0  0  0
  6 16  1  0  0  0  0
  6 21  1  0  0  0  0
  7 19  1  0  0  0  0
  7 20  1  0  0  0  0
  7 22  1  0  0  0  0
  8 27  1  0  0  0  0
  8 28  1  0  0  0  0
  8 64  1  0  0  0  0
  9 28  1  0  0  0  0
  9 32  2  0  0  0  0
 10 28  2  0  0  0  0
 10 37  1  0  0  0  0
 11 31  1  0  0  0  0
 11 32  1  0  0  0  0
 11 68  1  0  0  0  0
 12 13  1  0  0  0  0
 12 14  1  0  0  0  0
 12 41  1  0  0  0  0
 13 15  1  0  0  0  0
 13 42  1  0  0  0  0
 13 43  1  0  0  0  0
 14 16  1  0  0  0  0
 14 44  1  0  0  0  0
 14 45  1  0  0  0  0
 15 46  1  0  0  0  0
 15 47  1  0  0  0  0
 16 48  1  0  0  0  0
 16 49  1  0  0  0  0
 17 19  1  0  0  0  0
 17 50  1  0  0  0  0
 17 51  1  0  0  0  0
 18 20  1  0  0  0  0
 18 52  1  0  0  0  0
 18 53  1  0  0  0  0
 19 54  1  0  0  0  0
 19 55  1  0  0  0  0
 20 56  1  0  0  0  0
 20 57  1  0  0  0  0
 21 23  2  0  0  0  0
 21 24  1  0  0  0  0
 22 58  1  0  0  0  0
 22 59  1  0  0  0  0
 22 60  1  0  0  0  0
 23 25  1  0  0  0  0
 23 61  1  0  0  0  0
 24 26  2  0  0  0  0
 24 62  1  0  0  0  0
 25 27  2  0  0  0  0
 26 27  1  0  0  0  0
 26 63  1  0  0  0  0
 29 65  1  0  0  0  0
 29 66  1  0  0  0  0
 29 67  1  0  0  0  0
 30 31  1  0  0  0  0
 30 35  2  0  0  0  0
 31 38  2  0  0  0  0
 32 36  1  0  0  0  0
 33 69  1  0  0  0  0
 33 70  1  0  0  0  0
 33 71  1  0  0  0  0
 34 72  1  0  0  0  0
 34 73  1  0  0  0  0
 34 74  1  0  0  0  0
 35 39  1  0  0  0  0
 35 75  1  0  0  0  0
 36 37  2  0  0  0  0
 37 77  1  0  0  0  0
 38 40  1  0  0  0  0
 38 76  1  0  0  0  0
 39 40  2  0  0  0  0
 39 78  1  0  0  0  0
 40 79  1  0  0  0  0
M  END
> <PUBCHEM_COMPOUND_CID>
68165256

> <PUBCHEM_COMPOUND_CANONICALIZED>
1

> <PUBCHEM_CACTVS_COMPLEXITY>
835

> <PUBCHEM_CACTVS_HBOND_ACCEPTOR>
9

> <PUBCHEM_CACTVS_HBOND_DONOR>
2

> <PUBCHEM_CACTVS_ROTATABLE_BOND>
8

> <PUBCHEM_CACTVS_SUBSKEYS>
AAADcfB7sAIEAAAAAAAAAAAAAAAAAAAAAAA8eLECAAAAAAAB0AAAHgoQACAACC7BkiY/9pfIFCCgQDZnZACCiCkxI6AJ2CAvbJiObuLE+dvVNChu0BvY6CeQUAMAAACAAgAAEAAAAQAEAAAgAAAAAAAAAA==

> <PUBCHEM_IUPAC_OPENEYE_NAME>
5-chloro-N4-(2-dimethylphosphorylphenyl)-N2-[2-methoxy-4-[4-(4-methylpiperazin-1-yl)-1-piperidyl]phenyl]pyrimidine-2,4-diamine

> <PUBCHEM_IUPAC_CAS_NAME>
5-chloro-N4-(2-dimethylphosphorylphenyl)-N2-[2-methoxy-4-[4-(4-methyl-1-piperazinyl)-1-piperidinyl]phenyl]pyrimidine-2,4-diamine

> <PUBCHEM_IUPAC_NAME_MARKUP>
5-chloro-4-<I>N</I>-(2-dimethylphosphorylphenyl)-2-<I>N</I>-[2-methoxy-4-[4-(4-methylpiperazin-1-yl)piperidin-1-yl]phenyl]pyrimidine-2,4-diamine

> <PUBCHEM_IUPAC_NAME>
5-chloro-4-N-(2-dimethylphosphorylphenyl)-2-N-[2-methoxy-4-[4-(4-methylpiperazin-1-yl)piperidin-1-yl]phenyl]pyrimidine-2,4-diamine

> <PUBCHEM_IUPAC_SYSTEMATIC_NAME>
5-chloranyl-N4-(2-dimethylphosphorylphenyl)-N2-[2-methoxy-4-[4-(4-methylpiperazin-1-yl)piperidin-1-yl]phenyl]pyrimidine-2,4-diamine

> <PUBCHEM_IUPAC_TRADITIONAL_NAME>
[5-chloro-4-(2-dimethylphosphorylanilino)pyrimidin-2-yl]-[2-methoxy-4-[4-(4-methylpiperazino)piperidino]phenyl]amine

> <PUBCHEM_IUPAC_INCHI>
InChI=1S/C29H39ClN7O2P/c1-35-15-17-37(18-16-35)21-11-13-36(14-12-21)22-9-10-24(26(19-22)39-2)33-29-31-20-23(30)28(34-29)32-25-7-5-6-8-27(25)40(3,4)38/h5-10,19-21H,11-18H2,1-4H3,(H2,31,32,33,34)

> <PUBCHEM_IUPAC_INCHIKEY>
AILRADAXUVEEIR-UHFFFAOYSA-N

> <PUBCHEM_XLOGP3_AA>
4.6

> <PUBCHEM_EXACT_MASS>
583.2591382

> <PUBCHEM_MOLECULAR_FORMULA>
C29H39ClN7O2P

> <PUBCHEM_MOLECULAR_WEIGHT>
584.1

> <PUBCHEM_OPENEYE_CAN_SMILES>
CN1CCN(CC1)C2CCN(CC2)C3=CC(=C(C=C3)NC4=NC=C(C(=N4)NC5=CC=CC=C5P(=O)(C)C)Cl)OC

> <PUBCHEM_OPENEYE_ISO_SMILES>
CN1CCN(CC1)C2CCN(CC2)C3=CC(=C(C=C3)NC4=NC=C(C(=N4)NC5=CC=CC=C5P(=O)(C)C)Cl)OC

> <PUBCHEM_CACTVS_TPSA>
85.9

> <PUBCHEM_MONOISOTOPIC_WEIGHT>
583.2591382

> <PUBCHEM_TOTAL_CHARGE>
0

> <PUBCHEM_HEAVY_ATOM_COUNT>
40

> <PUBCHEM_ATOM_DEF_STEREO_COUNT>
0

> <PUBCHEM_ATOM_UDEF_STEREO_COUNT>
0

> <PUBCHEM_BOND_DEF_STEREO_COUNT>
0

> <PUBCHEM_BOND_UDEF_STEREO_COUNT>
0

> <PUBCHEM_ISOTOPIC_ATOM_COUNT>
0

> <PUBCHEM_COMPONENT_COUNT>
1

> <PUBCHEM_CACTVS_TAUTO_COUNT>
-1

> <PUBCHEM_COORDINATE_TYPE>
1
5
255

> <PUBCHEM_BONDANNOTATIONS>
10  28  8
10  37  8
21  23  8
21  24  8
23  25  8
24  26  8
25  27  8
26  27  8
30  31  8
30  35  8
31  38  8
32  36  8
35  39  8
36  37  8
38  40  8
39  40  8
9  28  8
9  32  8

$$$$
135476717
  -OEChem-11282412102D

 85 88  0     0  0  0  0  0  0999 V2000
   13.0681    6.6631    0.0000 S   0  0  0  0  0  0  0  0  0  0  0  0
    5.0524    8.8397    0.0000 O   0  0  0  0  0  0  0  0  0  0  0  0
    7.3969    2.0000    0.0000 O   0  0  0  0  0  0  0  0  0  0  0  0
    1.4030    1.5000    0.0000 O   0  0  0  0  0  0  0  0  0  0  0  0
    2.2690    0.0000    0.0000 O   0  0  0  0  0  0  0  0  0  0  0  0
   12.2021    6.1631    0.0000 O   0  0  0  0  0  0  0  0  0  0  0  0
   12.5681    7.5291    0.0000 O   0  0  0  0  0  0  0  0  0  0  0  0
   13.5681    5.7971    0.0000 O   0  0  0  0  0  0  0  0  0  0  0  0
    5.6737   10.7408    0.0000 N   0  0  0  0  0  0  0  0  0  0  0  0
    4.3380   12.2294    0.0000 N   0  0  0  0  0  0  0  0  0  0  0  0
    6.6988    8.3016    0.0000 N   0  0  0  0  0  0  0  0  0  0  0  0
    5.8133    1.1953    0.0000 N   0  0  0  0  0  0  0  0  0  0  0  0
    5.4561    4.4996    0.0000 N   0  0  0  0  0  0  0  0  0  0  0  0
    5.9844   11.6913    0.0000 C   0  0  0  0  0  0  0  0  0  0  0  0
    4.6952   10.5345    0.0000 C   0  0  0  0  0  0  0  0  0  0  0  0
    5.3165   12.4356    0.0000 C   0  0  0  0  0  0  0  0  0  0  0  0
    4.0274   11.2788    0.0000 C   0  0  0  0  0  0  0  0  0  0  0  0
    6.3416    9.9965    0.0000 C   0  0  0  0  0  0  0  0  0  0  0  0
    3.6702   12.9737    0.0000 C   0  0  0  0  0  0  0  0  0  0  0  0
    6.0309    9.0459    0.0000 C   0  0  0  0  0  0  0  0  0  0  0  0
    6.3881    7.3511    0.0000 C   0  0  0  0  0  0  0  0  0  0  0  0
    7.6773    8.5078    0.0000 C   0  0  0  0  0  0  0  0  0  0  0  0
    5.4096    7.1449    0.0000 C   0  0  0  0  0  0  0  0  0  0  0  0
    7.0559    6.6068    0.0000 C   0  0  0  0  0  0  0  0  0  0  0  0
    5.8133    2.8047    0.0000 C   0  0  0  0  0  0  0  0  0  0  0  0
    4.8671    2.5000    0.0000 C   0  0  0  0  0  0  0  0  0  0  0  0
    4.8671    1.5000    0.0000 C   0  0  0  0  0  0  0  0  0  0  0  0
    6.1239    3.7552    0.0000 C   0  0  0  0  0  0  0  0  0  0  0  0
    5.7668    5.4501    0.0000 C   0  0  0  0  0  0  0  0  0  0  0  0
    5.0989    6.1944    0.0000 C   0  0  0  0  0  0  0  0  0  0  0  0
    6.7453    5.6563    0.0000 C   0  0  0  0  0  0  0  0  0  0  0  0
    6.3969    2.0000    0.0000 C   0  0  0  0  0  0  0  0  0  0  0  0
    4.0010    3.0000    0.0000 C   0  0  0  0  0  0  0  0  0  0  0  0
    4.0010    1.0000    0.0000 C   0  0  0  0  0  0  0  0  0  0  0  0
    7.1024    3.9615    0.0000 C   0  0  0  0  0  0  0  0  0  0  0  0
    3.1350    1.5000    0.0000 C   0  0  0  0  0  0  0  0  0  0  0  0
    3.1350    2.5000    0.0000 C   0  0  0  0  0  0  0  0  0  0  0  0
    7.7703    3.2172    0.0000 C   0  0  0  0  0  0  0  0  0  0  0  0
    7.4131    4.9120    0.0000 C   0  0  0  0  0  0  0  0  0  0  0  0
    2.2690    1.0000    0.0000 C   0  0  0  0  0  0  0  0  0  0  0  0
    8.7488    3.4234    0.0000 C   0  0  0  0  0  0  0  0  0  0  0  0
    8.3916    5.1182    0.0000 C   0  0  0  0  0  0  0  0  0  0  0  0
    9.0595    4.3739    0.0000 C   0  0  0  0  0  0  0  0  0  0  0  0
    0.5369    1.0000    0.0000 C   0  0  0  0  0  0  0  0  0  0  0  0
   13.9342    7.1631    0.0000 C   0  0  0  0  0  0  0  0  0  0  0  0
   14.8002    6.6631    0.0000 C   0  0  0  0  0  0  0  0  0  0  0  0
    6.5313   11.3993    0.0000 H   0  0  0  0  0  0  0  0  0  0  0  0
    6.3669   12.1792    0.0000 H   0  0  0  0  0  0  0  0  0  0  0  0
    4.1689   10.2069    0.0000 H   0  0  0  0  0  0  0  0  0  0  0  0
    4.9265    9.9593    0.0000 H   0  0  0  0  0  0  0  0  0  0  0  0
    5.8429   12.7632    0.0000 H   0  0  0  0  0  0  0  0  0  0  0  0
    5.0853   13.0108    0.0000 H   0  0  0  0  0  0  0  0  0  0  0  0
    3.4804   11.5709    0.0000 H   0  0  0  0  0  0  0  0  0  0  0  0
    3.6448   10.7909    0.0000 H   0  0  0  0  0  0  0  0  0  0  0  0
    6.8885    9.7044    0.0000 H   0  0  0  0  0  0  0  0  0  0  0  0
    6.7241   10.4844    0.0000 H   0  0  0  0  0  0  0  0  0  0  0  0
    4.1317   13.3877    0.0000 H   0  0  0  0  0  0  0  0  0  0  0  0
    3.2561   13.4351    0.0000 H   0  0  0  0  0  0  0  0  0  0  0  0
    3.2087   12.5596    0.0000 H   0  0  0  0  0  0  0  0  0  0  0  0
    7.8051    7.9012    0.0000 H   0  0  0  0  0  0  0  0  0  0  0  0
    8.2839    8.6357    0.0000 H   0  0  0  0  0  0  0  0  0  0  0  0
    7.5494    9.1145    0.0000 H   0  0  0  0  0  0  0  0  0  0  0  0
    4.9955    7.6064    0.0000 H   0  0  0  0  0  0  0  0  0  0  0  0
    7.6626    6.7347    0.0000 H   0  0  0  0  0  0  0  0  0  0  0  0
    4.4922    6.0665    0.0000 H   0  0  0  0  0  0  0  0  0  0  0  0
    7.1593    5.1948    0.0000 H   0  0  0  0  0  0  0  0  0  0  0  0
    6.0059    0.6059    0.0000 H   0  0  0  0  0  0  0  0  0  0  0  0
    4.0010    3.6200    0.0000 H   0  0  0  0  0  0  0  0  0  0  0  0
    4.0010    0.3800    0.0000 H   0  0  0  0  0  0  0  0  0  0  0  0
    2.5981    2.8100    0.0000 H   0  0  0  0  0  0  0  0  0  0  0  0
    7.5777    2.6278    0.0000 H   0  0  0  0  0  0  0  0  0  0  0  0
    6.9990    5.3735    0.0000 H   0  0  0  0  0  0  0  0  0  0  0  0
    7.7069    1.4631    0.0000 H   0  0  0  0  0  0  0  0  0  0  0  0
    9.1629    2.9619    0.0000 H   0  0  0  0  0  0  0  0  0  0  0  0
    8.5842    5.7075    0.0000 H   0  0  0  0  0  0  0  0  0  0  0  0
    9.6661    4.5018    0.0000 H   0  0  0  0  0  0  0  0  0  0  0  0
    0.2269    1.5369    0.0000 H   0  0  0  0  0  0  0  0  0  0  0  0
    0.0000    0.6900    0.0000 H   0  0  0  0  0  0  0  0  0  0  0  0
    0.8469    0.4631    0.0000 H   0  0  0  0  0  0  0  0  0  0  0  0
   14.3327    7.6380    0.0000 H   0  0  0  0  0  0  0  0  0  0  0  0
   13.5356    7.6380    0.0000 H   0  0  0  0  0  0  0  0  0  0  0  0
   14.4902    6.1262    0.0000 H   0  0  0  0  0  0  0  0  0  0  0  0
   15.3371    6.3531    0.0000 H   0  0  0  0  0  0  0  0  0  0  0  0
   15.1102    7.2000    0.0000 H   0  0  0  0  0  0  0  0  0  0  0  0
   11.6652    6.4731    0.0000 H   0  0  0  0  0  0  0  0  0  0  0  0
  1  6  1  0  0  0  0
  1  7  2  0  0  0  0
  1  8  2  0  0  0  0
  1 45  1  0  0  0  0
  2 20  2  0  0  0  0
  3 32  1  0  0  0  0
  3 73  1  0  0  0  0
  4 40  1  0  0  0  0
  4 44  1  0  0  0  0
  5 40  2  0  0  0  0
  6 85  1  0  0  0  0
  9 14  1  0  0  0  0
  9 15  1  0  0  0  0
  9 18  1  0  0  0  0
 10 16  1  0  0  0  0
 10 17  1  0  0  0  0
 10 19  1  0  0  0  0
 11 20  1  0  0  0  0
 11 21  1  0  0  0  0
 11 22  1  0  0  0  0
 12 27  1  0  0  0  0
 12 32  1  0  0  0  0
 12 67  1  0  0  0  0
 13 28  2  0  0  0  0
 13 29  1  0  0  0  0
 14 16  1  0  0  0  0
 14 47  1  0  0  0  0
 14 48  1  0  0  0  0
 15 17  1  0  0  0  0
 15 49  1  0  0  0  0
 15 50  1  0  0  0  0
 16 51  1  0  0  0  0
 16 52  1  0  0  0  0
 17 53  1  0  0  0  0
 17 54  1  0  0  0  0
 18 20  1  0  0  0  0
 18 55  1  0  0  0  0
 18 56  1  0  0  0  0
 19 57  1  0  0  0  0
 19 58  1  0  0  0  0
 19 59  1  0  0  0  0
 21 23  2  0  0  0  0
 21 24  1  0  0  0  0
 22 60  1  0  0  0  0
 22 61  1  0  0  0  0
 22 62  1  0  0  0  0
 23 30  1  0  0  0  0
 23 63  1  0  0  0  0
 24 31  2  0  0  0  0
 24 64  1  0  0  0  0
 25 26  1  0  0  0  0
 25 28  1  0  0  0  0
 25 32  2  0  0  0  0
 26 27  2  0  0  0  0
 26 33  1  0  0  0  0
 27 34  1  0  0  0  0
 28 35  1  0  0  0  0
 29 30  2  0  0  0  0
 29 31  1  0  0  0  0
 30 65  1  0  0  0  0
 31 66  1  0  0  0  0
 33 37  2  0  0  0  0
 33 68  1  0  0  0  0
 34 36  2  0  0  0  0
 34 69  1  0  0  0  0
 35 38  2  0  0  0  0
 35 39  1  0  0  0  0
 36 37  1  0  0  0  0
 36 40  1  0  0  0  0
 37 70  1  0  0  0  0
 38 41  1  0  0  0  0
 38 71  1  0  0  0  0
 39 42  2  0  0  0  0
 39 72  1  0  0  0  0
 41 43  2  0  0  0  0
 41 74  1  0  0  0  0
 42 43  1  0  0  0  0
 42 75  1  0  0  0  0
 43 76  1  0  0  0  0
 44 77  1  0  0  0  0
 44 78  1  0  0  0  0
 44 79  1  0  0  0  0
 45 46  1  0  0  0  0
 45 80  1  0  0  0  0
 45 81  1  0  0  0  0
 46 82  1  0  0  0  0
 46 83  1  0  0  0  0
 46 84  1  0  0  0  0
M  END
> <PUBCHEM_COMPOUND_CID>
135476717

> <PUBCHEM_COMPOUND_CANONICALIZED>
1

> <PUBCHEM_CACTVS_COMPLEXITY>
997

> <PUBCHEM_CACTVS_HBOND_ACCEPTOR>
10

> <PUBCHEM_CACTVS_HBOND_DONOR>
3

> <PUBCHEM_CACTVS_ROTATABLE_BOND>
9

> <PUBCHEM_CACTVS_SUBSKEYS>
AAADcfB/uABAAAAAAAAAAAAAAAAAAWAAAAA8YMEAAAAAAFgB9AAAHgQQCAAADAjF3gayzPPJloKoAyXyXHDCgCAlIiAImSG8bN0IZvLCtbuUcQhk1hHI+Ye8yPCOwACAQAACAACAAQCAAAQAAAAAAAAAAA==

> <PUBCHEM_IUPAC_OPENEYE_NAME>
ethanesulfonic acid;methyl 2-hydroxy-3-[N-[4-[methyl-[2-(4-methylpiperazin-1-yl)acetyl]amino]phenyl]-C-phenyl-carbonimidoyl]-1H-indole-6-carboxylate

> <PUBCHEM_IUPAC_CAS_NAME>
ethanesulfonic acid;2-hydroxy-3-[[4-[methyl-[2-(4-methyl-1-piperazinyl)-1-oxoethyl]amino]phenyl]imino-phenylmethyl]-1H-indole-6-carboxylic acid methyl ester

> <PUBCHEM_IUPAC_NAME_MARKUP>
ethanesulfonic acid;methyl 2-hydroxy-3-[<I>N</I>-[4-[methyl-[2-(4-methylpiperazin-1-yl)acetyl]amino]phenyl]-<I>C</I>-phenylcarbonimidoyl]-1<I>H</I>-indole-6-carboxylate

> <PUBCHEM_IUPAC_NAME>
ethanesulfonic acid;methyl 2-hydroxy-3-[N-[4-[methyl-[2-(4-methylpiperazin-1-yl)acetyl]amino]phenyl]-C-phenylcarbonimidoyl]-1H-indole-6-carboxylate

> <PUBCHEM_IUPAC_SYSTEMATIC_NAME>
ethanesulfonic acid;methyl 3-[N-[4-[methyl-[2-(4-methylpiperazin-1-yl)ethanoyl]amino]phenyl]-C-phenyl-carbonimidoyl]-2-oxidanyl-1H-indole-6-carboxylate

> <PUBCHEM_IUPAC_TRADITIONAL_NAME>
esylic acid;2-hydroxy-3-[N-[4-[methyl-[2-(4-methylpiperazino)acetyl]amino]phenyl]-C-phenyl-carbonimidoyl]-1H-indole-6-carboxylic acid methyl ester

> <PUBCHEM_IUPAC_INCHI>
InChI=1S/C31H33N5O4.C2H6O3S/c1-34-15-17-36(18-16-34)20-27(37)35(2)24-12-10-23(11-13-24)32-29(21-7-5-4-6-8-21)28-25-14-9-22(31(39)40-3)19-26(25)33-30(28)38;1-2-6(3,4)5/h4-14,19,33,38H,15-18,20H2,1-3H3;2H2,1H3,(H,3,4,5)

> <PUBCHEM_IUPAC_INCHIKEY>
ZNMRDZZRAFJOKY-UHFFFAOYSA-N

> <PUBCHEM_EXACT_MASS>
649.25701977

> <PUBCHEM_MOLECULAR_FORMULA>
C33H39N5O7S

> <PUBCHEM_MOLECULAR_WEIGHT>
649.8

> <PUBCHEM_OPENEYE_CAN_SMILES>
CCS(=O)(=O)O.CN1CCN(CC1)CC(=O)N(C)C2=CC=C(C=C2)N=C(C3=CC=CC=C3)C4=C(NC5=C4C=CC(=C5)C(=O)OC)O

> <PUBCHEM_OPENEYE_ISO_SMILES>
CCS(=O)(=O)O.CN1CCN(CC1)CC(=O)N(C)C2=CC=C(C=C2)N=C(C3=CC=CC=C3)C4=C(NC5=C4C=CC(=C5)C(=O)OC)O

> <PUBCHEM_CACTVS_TPSA>
164

> <PUBCHEM_MONOISOTOPIC_WEIGHT>
649.25701977

> <PUBCHEM_TOTAL_CHARGE>
0

> <PUBCHEM_HEAVY_ATOM_COUNT>
46

> <PUBCHEM_ATOM_DEF_STEREO_COUNT>
0

> <PUBCHEM_ATOM_UDEF_STEREO_COUNT>
0

> <PUBCHEM_BOND_DEF_STEREO_COUNT>
0

> <PUBCHEM_BOND_UDEF_STEREO_COUNT>
0

> <PUBCHEM_ISOTOPIC_ATOM_COUNT>
0

> <PUBCHEM_COMPONENT_COUNT>
2

> <PUBCHEM_CACTVS_TAUTO_COUNT>
-1

> <PUBCHEM_COORDINATE_TYPE>
1
5
255

> <PUBCHEM_BONDANNOTATIONS>
12  27  8
12  32  8
21  23  8
21  24  8
23  30  8
24  31  8
25  26  8
25  32  8
26  27  8
26  33  8
27  34  8
29  30  8
29  31  8
33  37  8
34  36  8
35  38  8
35  39  8
36  37  8
38  41  8
39  42  8
41  43  8
42  43  8

$$$$
46188928
  -OEChem-11282412102D

 53 57  0     1  0  0  0  0  0999 V2000
    2.0000   -1.3854    0.0000 F   0  0  0  0  0  0  0  0  0  0  0  0
    4.9726   -4.0619    0.0000 F   0  0  0  0  0  0  0  0  0  0  0  0
   11.7231    3.4452    0.0000 O   0  0  0  0  0  0  0  0  0  0  0  0
   10.3170   -0.1434    0.0000 O   0  0  0  0  0  0  0  0  0  0  0  0
    4.8157   -0.3606    0.0000 N   0  0  3  0  0  0  0  0  0  0  0  0
    9.9598    1.5514    0.0000 N   0  0  0  0  0  0  0  0  0  0  0  0
    6.5477   -0.3606    0.0000 N   0  0  0  0  0  0  0  0  0  0  0  0
    7.4137   -1.8606    0.0000 N   0  0  0  0  0  0  0  0  0  0  0  0
    8.6706    0.3947    0.0000 N   0  0  0  0  0  0  0  0  0  0  0  0
    8.3600   -2.1653    0.0000 N   0  0  0  0  0  0  0  0  0  0  0  0
    3.9021   -0.7673    0.0000 C   0  0  2  0  0  0  0  0  0  0  0  0
    3.2330   -0.0242    0.0000 C   0  0  0  0  0  0  0  0  0  0  0  0
    3.7330    0.8418    0.0000 C   0  0  0  0  0  0  0  0  0  0  0  0
    4.7111    0.6339    0.0000 C   0  0  0  0  0  0  0  0  0  0  0  0
    3.6942   -1.7455    0.0000 C   0  0  0  0  0  0  0  0  0  0  0  0
    5.6817   -0.8606    0.0000 C   0  0  0  0  0  0  0  0  0  0  0  0
   10.9131    2.8588    0.0000 C   0  0  1  0  0  0  0  0  0  0  0  0
    9.9626    3.1694    0.0000 C   0  0  0  0  0  0  0  0  0  0  0  0
   10.9114    1.8588    0.0000 C   0  0  0  0  0  0  0  0  0  0  0  0
    9.3734    2.3614    0.0000 C   0  0  0  0  0  0  0  0  0  0  0  0
    2.7431   -2.0545    0.0000 C   0  0  0  0  0  0  0  0  0  0  0  0
    4.4374   -2.4146    0.0000 C   0  0  0  0  0  0  0  0  0  0  0  0
    5.6817   -1.8606    0.0000 C   0  0  0  0  0  0  0  0  0  0  0  0
    9.6491    0.6009    0.0000 C   0  0  0  0  0  0  0  0  0  0  0  0
    7.4137   -0.8606    0.0000 C   0  0  0  0  0  0  0  0  0  0  0  0
    8.3600   -0.5559    0.0000 C   0  0  0  0  0  0  0  0  0  0  0  0
    6.5477   -2.3606    0.0000 C   0  0  0  0  0  0  0  0  0  0  0  0
    4.2294   -3.3928    0.0000 C   0  0  0  0  0  0  0  0  0  0  0  0
    2.5352   -3.0326    0.0000 C   0  0  0  0  0  0  0  0  0  0  0  0
    3.2784   -3.7018    0.0000 C   0  0  0  0  0  0  0  0  0  0  0  0
    8.9436   -1.3606    0.0000 C   0  0  0  0  0  0  0  0  0  0  0  0
    3.3032   -0.9278    0.0000 H   0  0  0  0  0  0  0  0  0  0  0  0
    2.7314    0.3403    0.0000 H   0  0  0  0  0  0  0  0  0  0  0  0
    2.8181   -0.4849    0.0000 H   0  0  0  0  0  0  0  0  0  0  0  0
    3.9246    1.4315    0.0000 H   0  0  0  0  0  0  0  0  0  0  0  0
    3.1666    1.0940    0.0000 H   0  0  0  0  0  0  0  0  0  0  0  0
    5.3311    0.6339    0.0000 H   0  0  0  0  0  0  0  0  0  0  0  0
    4.7759    1.2505    0.0000 H   0  0  0  0  0  0  0  0  0  0  0  0
   10.8172    3.4713    0.0000 H   0  0  0  0  0  0  0  0  0  0  0  0
   10.2157    3.7354    0.0000 H   0  0  0  0  0  0  0  0  0  0  0  0
    9.4262    3.4804    0.0000 H   0  0  0  0  0  0  0  0  0  0  0  0
   11.0392    1.2521    0.0000 H   0  0  0  0  0  0  0  0  0  0  0  0
   11.5281    1.9225    0.0000 H   0  0  0  0  0  0  0  0  0  0  0  0
    8.9134    2.7771    0.0000 H   0  0  0  0  0  0  0  0  0  0  0  0
    8.9119    1.9474    0.0000 H   0  0  0  0  0  0  0  0  0  0  0  0
    5.0270   -2.2230    0.0000 H   0  0  0  0  0  0  0  0  0  0  0  0
    5.1448   -2.1706    0.0000 H   0  0  0  0  0  0  0  0  0  0  0  0
    6.5477   -2.9806    0.0000 H   0  0  0  0  0  0  0  0  0  0  0  0
    8.2566    0.8561    0.0000 H   0  0  0  0  0  0  0  0  0  0  0  0
   11.6594    4.0619    0.0000 H   0  0  0  0  0  0  0  0  0  0  0  0
    1.9456   -3.2242    0.0000 H   0  0  0  0  0  0  0  0  0  0  0  0
    3.1495   -4.3082    0.0000 H   0  0  0  0  0  0  0  0  0  0  0  0
    9.5636   -1.3606    0.0000 H   0  0  0  0  0  0  0  0  0  0  0  0
  1 21  1  0  0  0  0
  2 28  1  0  0  0  0
 17  3  1  6  0  0  0
  3 50  1  0  0  0  0
  4 24  2  0  0  0  0
  5 11  1  0  0  0  0
  5 14  1  0  0  0  0
  5 16  1  0  0  0  0
  6 19  1  0  0  0  0
  6 20  1  0  0  0  0
  6 24  1  0  0  0  0
  7 16  2  0  0  0  0
  7 25  1  0  0  0  0
  8 10  1  0  0  0  0
  8 25  1  0  0  0  0
  8 27  1  0  0  0  0
  9 24  1  0  0  0  0
  9 26  1  0  0  0  0
  9 49  1  0  0  0  0
 10 31  2  0  0  0  0
 11 12  1  0  0  0  0
 11 15  1  1  0  0  0
 11 32  1  0  0  0  0
 12 13  1  0  0  0  0
 12 33  1  0  0  0  0
 12 34  1  0  0  0  0
 13 14  1  0  0  0  0
 13 35  1  0  0  0  0
 13 36  1  0  0  0  0
 14 37  1  0  0  0  0
 14 38  1  0  0  0  0
 15 21  2  0  0  0  0
 15 22  1  0  0  0  0
 16 23  1  0  0  0  0
 17 18  1  0  0  0  0
 17 19  1  0  0  0  0
 17 39  1  0  0  0  0
 18 20  1  0  0  0  0
 18 40  1  0  0  0  0
 18 41  1  0  0  0  0
 19 42  1  0  0  0  0
 19 43  1  0  0  0  0
 20 44  1  0  0  0  0
 20 45  1  0  0  0  0
 21 29  1  0  0  0  0
 22 28  2  0  0  0  0
 22 46  1  0  0  0  0
 23 27  2  0  0  0  0
 23 47  1  0  0  0  0
 25 26  2  0  0  0  0
 26 31  1  0  0  0  0
 27 48  1  0  0  0  0
 28 30  1  0  0  0  0
 29 30  2  0  0  0  0
 29 51  1  0  0  0  0
 30 52  1  0  0  0  0
 31 53  1  0  0  0  0
M  END
> <PUBCHEM_COMPOUND_CID>
46188928

> <PUBCHEM_COMPOUND_CANONICALIZED>
1

> <PUBCHEM_CACTVS_COMPLEXITY>
659

> <PUBCHEM_CACTVS_HBOND_ACCEPTOR>
7

> <PUBCHEM_CACTVS_HBOND_DONOR>
2

> <PUBCHEM_CACTVS_ROTATABLE_BOND>
3

> <PUBCHEM_CACTVS_SUBSKEYS>
AAADceB7sYAAAAAAAAAAAAAAAAAAAWLFgAA8QAAAAAAAAFgB8AAAHwAYCAAADDzhmw498J/IEgCqAjZndACShCsxkqAd2CA4dJiKeOLA2VGU5AhqngLYiCcQgIAOAAAAAAAAAAAAAAAAAAAAAAAAAAAAAA==

> <PUBCHEM_IUPAC_OPENEYE_NAME>
(3S)-N-[5-[(2R)-2-(2,5-difluorophenyl)pyrrolidin-1-yl]pyrazolo[1,5-a]pyrimidin-3-yl]-3-hydroxy-pyrrolidine-1-carboxamide

> <PUBCHEM_IUPAC_CAS_NAME>
(3S)-N-[5-[(2R)-2-(2,5-difluorophenyl)-1-pyrrolidinyl]-3-pyrazolo[1,5-a]pyrimidinyl]-3-hydroxy-1-pyrrolidinecarboxamide

> <PUBCHEM_IUPAC_NAME_MARKUP>
(3<I>S</I>)-<I>N</I>-[5-[(2<I>R</I>)-2-(2,5-difluorophenyl)pyrrolidin-1-yl]pyrazolo[1,5-a]pyrimidin-3-yl]-3-hydroxypyrrolidine-1-carboxamide

> <PUBCHEM_IUPAC_NAME>
(3S)-N-[5-[(2R)-2-(2,5-difluorophenyl)pyrrolidin-1-yl]pyrazolo[1,5-a]pyrimidin-3-yl]-3-hydroxypyrrolidine-1-carboxamide

> <PUBCHEM_IUPAC_SYSTEMATIC_NAME>
(3S)-N-[5-[(2R)-2-[2,5-bis(fluoranyl)phenyl]pyrrolidin-1-yl]pyrazolo[1,5-a]pyrimidin-3-yl]-3-oxidanyl-pyrrolidine-1-carboxamide

> <PUBCHEM_IUPAC_TRADITIONAL_NAME>
(3S)-N-[5-[(2R)-2-(2,5-difluorophenyl)pyrrolidino]pyrazolo[1,5-a]pyrimidin-3-yl]-3-hydroxy-pyrrolidine-1-carboxamide

> <PUBCHEM_IUPAC_INCHI>
InChI=1S/C21H22F2N6O2/c22-13-3-4-16(23)15(10-13)18-2-1-7-28(18)19-6-9-29-20(26-19)17(11-24-29)25-21(31)27-8-5-14(30)12-27/h3-4,6,9-11,14,18,30H,1-2,5,7-8,12H2,(H,25,31)/t14-,18+/m0/s1

> <PUBCHEM_IUPAC_INCHIKEY>
NYNZQNWKBKUAII-KBXCAEBGSA-N

> <PUBCHEM_XLOGP3_AA>
1.7

> <PUBCHEM_EXACT_MASS>
428.17723029

> <PUBCHEM_MOLECULAR_FORMULA>
C21H22F2N6O2

> <PUBCHEM_MOLECULAR_WEIGHT>
428.4

> <PUBCHEM_OPENEYE_CAN_SMILES>
C1CC(N(C1)C2=NC3=C(C=NN3C=C2)NC(=O)N4CCC(C4)O)C5=C(C=CC(=C5)F)F

> <PUBCHEM_OPENEYE_ISO_SMILES>
C1C[C@@H](N(C1)C2=NC3=C(C=NN3C=C2)NC(=O)N4CC[C@@H](C4)O)C5=C(C=CC(=C5)F)F

> <PUBCHEM_CACTVS_TPSA>
86

> <PUBCHEM_MONOISOTOPIC_WEIGHT>
428.17723029

> <PUBCHEM_TOTAL_CHARGE>
0

> <PUBCHEM_HEAVY_ATOM_COUNT>
31

> <PUBCHEM_ATOM_DEF_STEREO_COUNT>
2

> <PUBCHEM_ATOM_UDEF_STEREO_COUNT>
0

> <PUBCHEM_BOND_DEF_STEREO_COUNT>
0

> <PUBCHEM_BOND_UDEF_STEREO_COUNT>
0

> <PUBCHEM_ISOTOPIC_ATOM_COUNT>
0

> <PUBCHEM_COMPONENT_COUNT>
1

> <PUBCHEM_CACTVS_TAUTO_COUNT>
-1

> <PUBCHEM_COORDINATE_TYPE>
1
5
255

> <PUBCHEM_BONDANNOTATIONS>
10  31  8
11  15  5
15  21  8
15  22  8
16  23  8
21  29  8
22  28  8
23  27  8
25  26  8
26  31  8
28  30  8
29  30  8
17  3  6
7  16  8
7  25  8
8  10  8
8  25  8
8  27  8

$$$$
57345941
  -OEChem-11282412102D

 86 90  0     0  0  0  0  0  0999 V2000
   16.4950   -3.4560    0.0000 F   0  0  0  0  0  0  0  0  0  0  0  0
    2.5369   -4.0900    0.0000 O   0  0  0  0  0  0  0  0  0  0  0  0
   12.6325    2.2231    0.0000 O   0  0  0  0  0  0  0  0  0  0  0  0
   11.9950   -4.3220    0.0000 O   0  0  0  0  0  0  0  0  0  0  0  0
    6.0010   -2.0900    0.0000 N   0  0  0  0  0  0  0  0  0  0  0  0
   10.4114   -1.7852    0.0000 N   0  0  0  0  0  0  0  0  0  0  0  0
   10.4114   -3.3947    0.0000 N   0  0  0  0  0  0  0  0  0  0  0  0
   10.9862    2.7612    0.0000 N   0  0  0  0  0  0  0  0  0  0  0  0
   11.9950   -2.5900    0.0000 N   0  0  0  0  0  0  0  0  0  0  0  0
    4.2690   -3.0900    0.0000 C   0  0  0  0  0  0  0  0  0  0  0  0
   10.7220   -0.8347    0.0000 C   0  0  0  0  0  0  0  0  0  0  0  0
    4.2690   -2.0900    0.0000 C   0  0  0  0  0  0  0  0  0  0  0  0
    5.1350   -3.5900    0.0000 C   0  0  0  0  0  0  0  0  0  0  0  0
   11.7005   -0.6285    0.0000 C   0  0  0  0  0  0  0  0  0  0  0  0
   10.0542   -0.0904    0.0000 C   0  0  0  0  0  0  0  0  0  0  0  0
   11.3433    1.0663    0.0000 C   0  0  0  0  0  0  0  0  0  0  0  0
    3.4030   -3.5900    0.0000 C   0  0  0  0  0  0  0  0  0  0  0  0
   12.0112    0.3220    0.0000 C   0  0  0  0  0  0  0  0  0  0  0  0
   10.3648    0.8601    0.0000 C   0  0  0  0  0  0  0  0  0  0  0  0
    5.1350   -1.5900    0.0000 C   0  0  0  0  0  0  0  0  0  0  0  0
    6.0010   -3.0900    0.0000 C   0  0  0  0  0  0  0  0  0  0  0  0
    6.8671   -1.5900    0.0000 C   0  0  0  0  0  0  0  0  0  0  0  0
    9.4651   -2.0900    0.0000 C   0  0  0  0  0  0  0  0  0  0  0  0
    2.9030   -2.7239    0.0000 C   0  0  0  0  0  0  0  0  0  0  0  0
    3.9030   -4.4560    0.0000 C   0  0  0  0  0  0  0  0  0  0  0  0
   11.6540    2.0169    0.0000 C   0  0  0  0  0  0  0  0  0  0  0  0
    7.7331   -2.0900    0.0000 C   0  0  0  0  0  0  0  0  0  0  0  0
   10.9950   -2.5900    0.0000 C   0  0  0  0  0  0  0  0  0  0  0  0
    8.5991   -1.5900    0.0000 C   0  0  0  0  0  0  0  0  0  0  0  0
    9.4651   -3.0900    0.0000 C   0  0  0  0  0  0  0  0  0  0  0  0
    7.7331   -3.0900    0.0000 C   0  0  0  0  0  0  0  0  0  0  0  0
    8.5991   -3.5900    0.0000 C   0  0  0  0  0  0  0  0  0  0  0  0
   11.2968    3.7117    0.0000 C   0  0  0  0  0  0  0  0  0  0  0  0
   10.6290    4.4560    0.0000 C   0  0  0  0  0  0  0  0  0  0  0  0
   12.2753    3.9179    0.0000 C   0  0  0  0  0  0  0  0  0  0  0  0
   12.4950   -3.4560    0.0000 C   0  0  0  0  0  0  0  0  0  0  0  0
   13.4950   -3.4560    0.0000 C   0  0  0  0  0  0  0  0  0  0  0  0
   13.9950   -4.3220    0.0000 C   0  0  0  0  0  0  0  0  0  0  0  0
   13.9950   -2.5900    0.0000 C   0  0  0  0  0  0  0  0  0  0  0  0
   14.9950   -4.3220    0.0000 C   0  0  0  0  0  0  0  0  0  0  0  0
   14.9950   -2.5900    0.0000 C   0  0  0  0  0  0  0  0  0  0  0  0
   15.4950   -3.4560    0.0000 C   0  0  0  0  0  0  0  0  0  0  0  0
    4.2690   -3.7100    0.0000 H   0  0  0  0  0  0  0  0  0  0  0  0
   11.1361   -1.2962    0.0000 H   0  0  0  0  0  0  0  0  0  0  0  0
    4.0569   -1.5074    0.0000 H   0  0  0  0  0  0  0  0  0  0  0  0
    3.6584   -2.1976    0.0000 H   0  0  0  0  0  0  0  0  0  0  0  0
    4.7365   -4.0649    0.0000 H   0  0  0  0  0  0  0  0  0  0  0  0
    5.5335   -4.0649    0.0000 H   0  0  0  0  0  0  0  0  0  0  0  0
   11.7211   -1.2481    0.0000 H   0  0  0  0  0  0  0  0  0  0  0  0
   12.3143   -0.7158    0.0000 H   0  0  0  0  0  0  0  0  0  0  0  0
    9.5073    0.2016    0.0000 H   0  0  0  0  0  0  0  0  0  0  0  0
    9.6716   -0.5783    0.0000 H   0  0  0  0  0  0  0  0  0  0  0  0
   11.9500    1.1942    0.0000 H   0  0  0  0  0  0  0  0  0  0  0  0
   12.5581    0.0300    0.0000 H   0  0  0  0  0  0  0  0  0  0  0  0
   12.3937    0.8099    0.0000 H   0  0  0  0  0  0  0  0  0  0  0  0
   10.3443    1.4798    0.0000 H   0  0  0  0  0  0  0  0  0  0  0  0
    9.7510    0.9475    0.0000 H   0  0  0  0  0  0  0  0  0  0  0  0
    5.5335   -1.1150    0.0000 H   0  0  0  0  0  0  0  0  0  0  0  0
    4.7365   -1.1150    0.0000 H   0  0  0  0  0  0  0  0  0  0  0  0
    6.2131   -3.6726    0.0000 H   0  0  0  0  0  0  0  0  0  0  0  0
    6.6116   -2.9823    0.0000 H   0  0  0  0  0  0  0  0  0  0  0  0
    7.2656   -1.1150    0.0000 H   0  0  0  0  0  0  0  0  0  0  0  0
    6.4685   -1.1150    0.0000 H   0  0  0  0  0  0  0  0  0  0  0  0
    3.4399   -2.4139    0.0000 H   0  0  0  0  0  0  0  0  0  0  0  0
    2.5930   -2.1870    0.0000 H   0  0  0  0  0  0  0  0  0  0  0  0
    2.3660   -3.0339    0.0000 H   0  0  0  0  0  0  0  0  0  0  0  0
    3.3660   -4.7660    0.0000 H   0  0  0  0  0  0  0  0  0  0  0  0
    4.2130   -4.9929    0.0000 H   0  0  0  0  0  0  0  0  0  0  0  0
    4.4399   -4.1460    0.0000 H   0  0  0  0  0  0  0  0  0  0  0  0
    8.5991   -0.9700    0.0000 H   0  0  0  0  0  0  0  0  0  0  0  0
    2.0000   -3.7800    0.0000 H   0  0  0  0  0  0  0  0  0  0  0  0
    7.1962   -3.4000    0.0000 H   0  0  0  0  0  0  0  0  0  0  0  0
    8.5991   -4.2100    0.0000 H   0  0  0  0  0  0  0  0  0  0  0  0
   10.3795    2.6333    0.0000 H   0  0  0  0  0  0  0  0  0  0  0  0
   12.3050   -2.0530    0.0000 H   0  0  0  0  0  0  0  0  0  0  0  0
   10.6902    3.5838    0.0000 H   0  0  0  0  0  0  0  0  0  0  0  0
   11.0905    4.8700    0.0000 H   0  0  0  0  0  0  0  0  0  0  0  0
   10.2149    4.9174    0.0000 H   0  0  0  0  0  0  0  0  0  0  0  0
   10.1675    4.0419    0.0000 H   0  0  0  0  0  0  0  0  0  0  0  0
   12.4032    3.3112    0.0000 H   0  0  0  0  0  0  0  0  0  0  0  0
   12.8820    4.0458    0.0000 H   0  0  0  0  0  0  0  0  0  0  0  0
   12.1475    4.5246    0.0000 H   0  0  0  0  0  0  0  0  0  0  0  0
   13.6850   -4.8589    0.0000 H   0  0  0  0  0  0  0  0  0  0  0  0
   13.6850   -2.0530    0.0000 H   0  0  0  0  0  0  0  0  0  0  0  0
   15.3050   -4.8589    0.0000 H   0  0  0  0  0  0  0  0  0  0  0  0
   15.3050   -2.0530    0.0000 H   0  0  0  0  0  0  0  0  0  0  0  0
  1 42  1  0  0  0  0
  2 17  1  0  0  0  0
  2 71  1  0  0  0  0
  3 26  2  0  0  0  0
  4 36  2  0  0  0  0
  5 20  1  0  0  0  0
  5 21  1  0  0  0  0
  5 22  1  0  0  0  0
  6 11  1  0  0  0  0
  6 23  1  0  0  0  0
  6 28  1  0  0  0  0
  7 28  2  0  0  0  0
  7 30  1  0  0  0  0
  8 26  1  0  0  0  0
  8 33  1  0  0  0  0
  8 74  1  0  0  0  0
  9 28  1  0  0  0  0
  9 36  1  0  0  0  0
  9 75  1  0  0  0  0
 10 12  1  0  0  0  0
 10 13  1  0  0  0  0
 10 17  1  0  0  0  0
 10 43  1  0  0  0  0
 11 14  1  0  0  0  0
 11 15  1  0  0  0  0
 11 44  1  0  0  0  0
 12 20  1  0  0  0  0
 12 45  1  0  0  0  0
 12 46  1  0  0  0  0
 13 21  1  0  0  0  0
 13 47  1  0  0  0  0
 13 48  1  0  0  0  0
 14 18  1  0  0  0  0
 14 49  1  0  0  0  0
 14 50  1  0  0  0  0
 15 19  1  0  0  0  0
 15 51  1  0  0  0  0
 15 52  1  0  0  0  0
 16 18  1  0  0  0  0
 16 19  1  0  0  0  0
 16 26  1  0  0  0  0
 16 53  1  0  0  0  0
 17 24  1  0  0  0  0
 17 25  1  0  0  0  0
 18 54  1  0  0  0  0
 18 55  1  0  0  0  0
 19 56  1  0  0  0  0
 19 57  1  0  0  0  0
 20 58  1  0  0  0  0
 20 59  1  0  0  0  0
 21 60  1  0  0  0  0
 21 61  1  0  0  0  0
 22 27  1  0  0  0  0
 22 62  1  0  0  0  0
 22 63  1  0  0  0  0
 23 29  1  0  0  0  0
 23 30  2  0  0  0  0
 24 64  1  0  0  0  0
 24 65  1  0  0  0  0
 24 66  1  0  0  0  0
 25 67  1  0  0  0  0
 25 68  1  0  0  0  0
 25 69  1  0  0  0  0
 27 29  2  0  0  0  0
 27 31  1  0  0  0  0
 29 70  1  0  0  0  0
 30 32  1  0  0  0  0
 31 32  2  0  0  0  0
 31 72  1  0  0  0  0
 32 73  1  0  0  0  0
 33 34  1  0  0  0  0
 33 35  1  0  0  0  0
 33 76  1  0  0  0  0
 34 77  1  0  0  0  0
 34 78  1  0  0  0  0
 34 79  1  0  0  0  0
 35 80  1  0  0  0  0
 35 81  1  0  0  0  0
 35 82  1  0  0  0  0
 36 37  1  0  0  0  0
 37 38  2  0  0  0  0
 37 39  1  0  0  0  0
 38 40  1  0  0  0  0
 38 83  1  0  0  0  0
 39 41  2  0  0  0  0
 39 84  1  0  0  0  0
 40 42  2  0  0  0  0
 40 85  1  0  0  0  0
 41 42  1  0  0  0  0
 41 86  1  0  0  0  0
M  END
> <PUBCHEM_COMPOUND_CID>
57345941

> <PUBCHEM_COMPOUND_CANONICALIZED>
1

> <PUBCHEM_CACTVS_COMPLEXITY>
909

> <PUBCHEM_CACTVS_HBOND_ACCEPTOR>
6

> <PUBCHEM_CACTVS_HBOND_DONOR>
3

> <PUBCHEM_CACTVS_ROTATABLE_BOND>
8

> <PUBCHEM_CACTVS_SUBSKEYS>
AAADcfB/sQAAAAAAAAAAAAAAAAAAAWAAAAA8YMEAAAAAAFgB9AAAHwAQCAAADWzBngwz0LfMEgCoAyVydACCgC0lEqAJ2KE4dNiIaLLAnZGUYQhslwLIyac4iQCeiAAAQAAAACAQAACAAAAAQAAAAAAAAA==

> <PUBCHEM_IUPAC_OPENEYE_NAME>
4-fluoro-N-[6-[[4-(1-hydroxy-1-methyl-ethyl)-1-piperidyl]methyl]-1-[4-(isopropylcarbamoyl)cyclohexyl]benzimidazol-2-yl]benzamide

> <PUBCHEM_IUPAC_CAS_NAME>
4-fluoro-N-[6-[[4-(2-hydroxypropan-2-yl)-1-piperidinyl]methyl]-1-[4-[oxo-(propan-2-ylamino)methyl]cyclohexyl]-2-benzimidazolyl]benzamide

> <PUBCHEM_IUPAC_NAME_MARKUP>
4-fluoro-<I>N</I>-[6-[[4-(2-hydroxypropan-2-yl)piperidin-1-yl]methyl]-1-[4-(propan-2-ylcarbamoyl)cyclohexyl]benzimidazol-2-yl]benzamide

> <PUBCHEM_IUPAC_NAME>
4-fluoro-N-[6-[[4-(2-hydroxypropan-2-yl)piperidin-1-yl]methyl]-1-[4-(propan-2-ylcarbamoyl)cyclohexyl]benzimidazol-2-yl]benzamide

> <PUBCHEM_IUPAC_SYSTEMATIC_NAME>
4-fluoranyl-N-[6-[[4-(2-oxidanylpropan-2-yl)piperidin-1-yl]methyl]-1-[4-(propan-2-ylcarbamoyl)cyclohexyl]benzimidazol-2-yl]benzamide

> <PUBCHEM_IUPAC_TRADITIONAL_NAME>
4-fluoro-N-[6-[[4-(1-hydroxy-1-methyl-ethyl)piperidino]methyl]-1-[4-(isopropylcarbamoyl)cyclohexyl]benzimidazol-2-yl]benzamide

> <PUBCHEM_IUPAC_INCHI>
InChI=1S/C33H44FN5O3/c1-21(2)35-30(40)24-8-12-27(13-9-24)39-29-19-22(20-38-17-15-25(16-18-38)33(3,4)42)5-14-28(29)36-32(39)37-31(41)23-6-10-26(34)11-7-23/h5-7,10-11,14,19,21,24-25,27,42H,8-9,12-13,15-18,20H2,1-4H3,(H,35,40)(H,36,37,41)

> <PUBCHEM_IUPAC_INCHIKEY>
WSTUJEXAPHIEIM-UHFFFAOYSA-N

> <PUBCHEM_XLOGP3_AA>
4.5

> <PUBCHEM_EXACT_MASS>
577.34281844

> <PUBCHEM_MOLECULAR_FORMULA>
C33H44FN5O3

> <PUBCHEM_MOLECULAR_WEIGHT>
577.7

> <PUBCHEM_OPENEYE_CAN_SMILES>
CC(C)NC(=O)C1CCC(CC1)N2C3=C(C=CC(=C3)CN4CCC(CC4)C(C)(C)O)N=C2NC(=O)C5=CC=C(C=C5)F

> <PUBCHEM_OPENEYE_ISO_SMILES>
CC(C)NC(=O)C1CCC(CC1)N2C3=C(C=CC(=C3)CN4CCC(CC4)C(C)(C)O)N=C2NC(=O)C5=CC=C(C=C5)F

> <PUBCHEM_CACTVS_TPSA>
99.5

> <PUBCHEM_MONOISOTOPIC_WEIGHT>
577.34281844

> <PUBCHEM_TOTAL_CHARGE>
0

> <PUBCHEM_HEAVY_ATOM_COUNT>
42

> <PUBCHEM_ATOM_DEF_STEREO_COUNT>
0

> <PUBCHEM_ATOM_UDEF_STEREO_COUNT>
0

> <PUBCHEM_BOND_DEF_STEREO_COUNT>
0

> <PUBCHEM_BOND_UDEF_STEREO_COUNT>
0

> <PUBCHEM_ISOTOPIC_ATOM_COUNT>
0

> <PUBCHEM_COMPONENT_COUNT>
1

> <PUBCHEM_CACTVS_TAUTO_COUNT>
-1

> <PUBCHEM_COORDINATE_TYPE>
1
5
255

> <PUBCHEM_BONDANNOTATIONS>
23  29  8
23  30  8
27  29  8
27  31  8
30  32  8
31  32  8
37  38  8
37  39  8
38  40  8
39  41  8
40  42  8
41  42  8
6  23  8
6  28  8
7  28  8
7  30  8

$$$$
56960363
  -OEChem-11282412102D

 65 68  0     1  0  0  0  0  0999 V2000
    9.7942    4.5600    0.0000 Cl  0  0  0  0  0  0  0  0  0  0  0  0
    6.3301    4.5600    0.0000 Cl  0  0  0  0  0  0  0  0  0  0  0  0
    9.7942    6.5600    0.0000 F   0  0  0  0  0  0  0  0  0  0  0  0
    2.8660   -2.4400    0.0000 O   0  0  0  0  0  0  0  0  0  0  0  0
    8.9282    3.0600    0.0000 O   0  0  0  0  0  0  0  0  0  0  0  0
    6.3301    0.5600    0.0000 O   0  0  0  0  0  0  0  0  0  0  0  0
    3.7320   -3.9400    0.0000 N   0  0  0  0  0  0  0  0  0  0  0  0
    3.7320   -5.9400    0.0000 N   0  0  0  0  0  0  0  0  0  0  0  0
    7.1962   -0.9400    0.0000 N   0  0  0  0  0  0  0  0  0  0  0  0
    8.9282    0.0600    0.0000 N   0  0  0  0  0  0  0  0  0  0  0  0
    9.7942    0.5600    0.0000 N   0  0  0  0  0  0  0  0  0  0  0  0
   10.6603    2.0600    0.0000 N   0  0  0  0  0  0  0  0  0  0  0  0
    2.8660   -5.4400    0.0000 C   0  0  2  0  0  0  0  0  0  0  0  0
    4.5981   -5.4400    0.0000 C   0  0  1  0  0  0  0  0  0  0  0  0
    2.8660   -4.4400    0.0000 C   0  0  0  0  0  0  0  0  0  0  0  0
    4.5981   -4.4400    0.0000 C   0  0  0  0  0  0  0  0  0  0  0  0
    2.0000   -5.9400    0.0000 C   0  0  0  0  0  0  0  0  0  0  0  0
    5.4641   -5.9400    0.0000 C   0  0  0  0  0  0  0  0  0  0  0  0
    3.7320   -2.9400    0.0000 C   0  0  0  0  0  0  0  0  0  0  0  0
    4.5981   -2.4400    0.0000 C   0  0  0  0  0  0  0  0  0  0  0  0
    4.5981   -1.4400    0.0000 C   0  0  0  0  0  0  0  0  0  0  0  0
    5.4641   -2.9400    0.0000 C   0  0  0  0  0  0  0  0  0  0  0  0
    5.4641   -0.9400    0.0000 C   0  0  0  0  0  0  0  0  0  0  0  0
    6.3301   -2.4400    0.0000 C   0  0  0  0  0  0  0  0  0  0  0  0
    6.3301   -1.4400    0.0000 C   0  0  0  0  0  0  0  0  0  0  0  0
    8.0622    3.5600    0.0000 C   0  0  1  0  0  0  0  0  0  0  0  0
    8.0622    4.5600    0.0000 C   0  0  0  0  0  0  0  0  0  0  0  0
    7.1962    0.0600    0.0000 C   0  0  0  0  0  0  0  0  0  0  0  0
    7.1962    3.0600    0.0000 C   0  0  0  0  0  0  0  0  0  0  0  0
    8.0622    0.5600    0.0000 C   0  0  0  0  0  0  0  0  0  0  0  0
    8.9282    2.0600    0.0000 C   0  0  0  0  0  0  0  0  0  0  0  0
    8.9282    5.0600    0.0000 C   0  0  0  0  0  0  0  0  0  0  0  0
    7.1962    5.0600    0.0000 C   0  0  0  0  0  0  0  0  0  0  0  0
    8.0622    1.5600    0.0000 C   0  0  0  0  0  0  0  0  0  0  0  0
    9.7942    1.5600    0.0000 C   0  0  0  0  0  0  0  0  0  0  0  0
    8.9282    6.0600    0.0000 C   0  0  0  0  0  0  0  0  0  0  0  0
    7.1962    6.0600    0.0000 C   0  0  0  0  0  0  0  0  0  0  0  0
    8.0622    6.5600    0.0000 C   0  0  0  0  0  0  0  0  0  0  0  0
    2.8660   -6.0600    0.0000 H   0  0  0  0  0  0  0  0  0  0  0  0
    4.5981   -6.0600    0.0000 H   0  0  0  0  0  0  0  0  0  0  0  0
    2.6540   -3.8574    0.0000 H   0  0  0  0  0  0  0  0  0  0  0  0
    2.2554   -4.5477    0.0000 H   0  0  0  0  0  0  0  0  0  0  0  0
    5.2087   -4.5477    0.0000 H   0  0  0  0  0  0  0  0  0  0  0  0
    4.8101   -3.8574    0.0000 H   0  0  0  0  0  0  0  0  0  0  0  0
    3.7320   -6.5600    0.0000 H   0  0  0  0  0  0  0  0  0  0  0  0
    1.6900   -5.4031    0.0000 H   0  0  0  0  0  0  0  0  0  0  0  0
    1.4631   -6.2500    0.0000 H   0  0  0  0  0  0  0  0  0  0  0  0
    2.3100   -6.4769    0.0000 H   0  0  0  0  0  0  0  0  0  0  0  0
    5.1541   -6.4769    0.0000 H   0  0  0  0  0  0  0  0  0  0  0  0
    6.0010   -6.2500    0.0000 H   0  0  0  0  0  0  0  0  0  0  0  0
    5.7741   -5.4031    0.0000 H   0  0  0  0  0  0  0  0  0  0  0  0
    4.0611   -1.1300    0.0000 H   0  0  0  0  0  0  0  0  0  0  0  0
    5.4641   -3.5600    0.0000 H   0  0  0  0  0  0  0  0  0  0  0  0
    5.4641   -0.3200    0.0000 H   0  0  0  0  0  0  0  0  0  0  0  0
    6.8671   -2.7500    0.0000 H   0  0  0  0  0  0  0  0  0  0  0  0
    7.7331   -1.2500    0.0000 H   0  0  0  0  0  0  0  0  0  0  0  0
    8.0622    2.9400    0.0000 H   0  0  0  0  0  0  0  0  0  0  0  0
    6.8862    3.5969    0.0000 H   0  0  0  0  0  0  0  0  0  0  0  0
    6.6592    2.7500    0.0000 H   0  0  0  0  0  0  0  0  0  0  0  0
    7.5062    2.5231    0.0000 H   0  0  0  0  0  0  0  0  0  0  0  0
    7.5252    1.8700    0.0000 H   0  0  0  0  0  0  0  0  0  0  0  0
    6.6592    6.3700    0.0000 H   0  0  0  0  0  0  0  0  0  0  0  0
    8.0622    7.1800    0.0000 H   0  0  0  0  0  0  0  0  0  0  0  0
   11.1972    1.7500    0.0000 H   0  0  0  0  0  0  0  0  0  0  0  0
   10.6603    2.6800    0.0000 H   0  0  0  0  0  0  0  0  0  0  0  0
  1 32  1  0  0  0  0
  2 33  1  0  0  0  0
  3 36  1  0  0  0  0
  4 19  2  0  0  0  0
 26  5  1  6  0  0  0
  5 31  1  0  0  0  0
  6 28  2  0  0  0  0
  7 15  1  0  0  0  0
  7 16  1  0  0  0  0
  7 19  1  0  0  0  0
  8 13  1  0  0  0  0
  8 14  1  0  0  0  0
  8 45  1  0  0  0  0
  9 25  1  0  0  0  0
  9 28  1  0  0  0  0
  9 56  1  0  0  0  0
 10 11  1  0  0  0  0
 10 30  2  0  0  0  0
 11 35  2  0  0  0  0
 12 35  1  0  0  0  0
 12 64  1  0  0  0  0
 12 65  1  0  0  0  0
 13 15  1  0  0  0  0
 13 17  1  1  0  0  0
 13 39  1  0  0  0  0
 14 16  1  0  0  0  0
 14 18  1  1  0  0  0
 14 40  1  0  0  0  0
 15 41  1  0  0  0  0
 15 42  1  0  0  0  0
 16 43  1  0  0  0  0
 16 44  1  0  0  0  0
 17 46  1  0  0  0  0
 17 47  1  0  0  0  0
 17 48  1  0  0  0  0
 18 49  1  0  0  0  0
 18 50  1  0  0  0  0
 18 51  1  0  0  0  0
 19 20  1  0  0  0  0
 20 21  2  0  0  0  0
 20 22  1  0  0  0  0
 21 23  1  0  0  0  0
 21 52  1  0  0  0  0
 22 24  2  0  0  0  0
 22 53  1  0  0  0  0
 23 25  2  0  0  0  0
 23 54  1  0  0  0  0
 24 25  1  0  0  0  0
 24 55  1  0  0  0  0
 26 27  1  0  0  0  0
 26 29  1  0  0  0  0
 26 57  1  0  0  0  0
 27 32  1  0  0  0  0
 27 33  2  0  0  0  0
 28 30  1  0  0  0  0
 29 58  1  0  0  0  0
 29 59  1  0  0  0  0
 29 60  1  0  0  0  0
 30 34  1  0  0  0  0
 31 34  2  0  0  0  0
 31 35  1  0  0  0  0
 32 36  2  0  0  0  0
 33 37  1  0  0  0  0
 34 61  1  0  0  0  0
 36 38  1  0  0  0  0
 37 38  2  0  0  0  0
 37 62  1  0  0  0  0
 38 63  1  0  0  0  0
M  END
> <PUBCHEM_COMPOUND_CID>
56960363

> <PUBCHEM_COMPOUND_CANONICALIZED>
1

> <PUBCHEM_CACTVS_COMPLEXITY>
812

> <PUBCHEM_CACTVS_HBOND_ACCEPTOR>
8

> <PUBCHEM_CACTVS_HBOND_DONOR>
3

> <PUBCHEM_CACTVS_ROTATABLE_BOND>
6

> <PUBCHEM_CACTVS_SUBSKEYS>
AAADceB7sQAGAAAAAAAAAAAAAAAAAAAAAAA8eIEAAAAAAAAB0AAAHwIYAAAADD7hni4z9pPABACqAydycASSDAInZwAcmKG/btgOZrLFt5uXuSj23hnI6Ye6yaCeCAAAAACBAAAQAAAAAQIAAAAAAAAAAA==

> <PUBCHEM_IUPAC_OPENEYE_NAME>
6-amino-5-[(1R)-1-(2,6-dichloro-3-fluoro-phenyl)ethoxy]-N-[4-[(3R,5S)-3,5-dimethylpiperazine-1-carbonyl]phenyl]pyridazine-3-carboxamide

> <PUBCHEM_IUPAC_CAS_NAME>
6-amino-5-[(1R)-1-(2,6-dichloro-3-fluorophenyl)ethoxy]-N-[4-[[(3R,5S)-3,5-dimethyl-1-piperazinyl]-oxomethyl]phenyl]-3-pyridazinecarboxamide

> <PUBCHEM_IUPAC_NAME_MARKUP>
6-amino-5-[(1<I>R</I>)-1-(2,6-dichloro-3-fluorophenyl)ethoxy]-<I>N</I>-[4-[(3<I>R</I>,5<I>S</I>)-3,5-dimethylpiperazine-1-carbonyl]phenyl]pyridazine-3-carboxamide

> <PUBCHEM_IUPAC_NAME>
6-amino-5-[(1R)-1-(2,6-dichloro-3-fluorophenyl)ethoxy]-N-[4-[(3R,5S)-3,5-dimethylpiperazine-1-carbonyl]phenyl]pyridazine-3-carboxamide

> <PUBCHEM_IUPAC_SYSTEMATIC_NAME>
6-azanyl-5-[(1R)-1-[2,6-bis(chloranyl)-3-fluoranyl-phenyl]ethoxy]-N-[4-[(3R,5S)-3,5-dimethylpiperazin-1-yl]carbonylphenyl]pyridazine-3-carboxamide

> <PUBCHEM_IUPAC_TRADITIONAL_NAME>
6-amino-5-[(1R)-1-(2,6-dichloro-3-fluoro-phenyl)ethoxy]-N-[4-[(3R,5S)-3,5-dimethylpiperazine-1-carbonyl]phenyl]pyridazine-3-carboxamide

> <PUBCHEM_IUPAC_INCHI>
InChI=1S/C26H27Cl2FN6O3/c1-13-11-35(12-14(2)31-13)26(37)16-4-6-17(7-5-16)32-25(36)20-10-21(24(30)34-33-20)38-15(3)22-18(27)8-9-19(29)23(22)28/h4-10,13-15,31H,11-12H2,1-3H3,(H2,30,34)(H,32,36)/t13-,14+,15-/m1/s1

> <PUBCHEM_IUPAC_INCHIKEY>
GLYMPHUVMRFTFV-QLFBSQMISA-N

> <PUBCHEM_XLOGP3_AA>
3.6

> <PUBCHEM_EXACT_MASS>
560.1505723

> <PUBCHEM_MOLECULAR_FORMULA>
C26H27Cl2FN6O3

> <PUBCHEM_MOLECULAR_WEIGHT>
561.4

> <PUBCHEM_OPENEYE_CAN_SMILES>
CC1CN(CC(N1)C)C(=O)C2=CC=C(C=C2)NC(=O)C3=NN=C(C(=C3)OC(C)C4=C(C=CC(=C4Cl)F)Cl)N

> <PUBCHEM_OPENEYE_ISO_SMILES>
C[C@@H]1CN(C[C@@H](N1)C)C(=O)C2=CC=C(C=C2)NC(=O)C3=NN=C(C(=C3)O[C@H](C)C4=C(C=CC(=C4Cl)F)Cl)N

> <PUBCHEM_CACTVS_TPSA>
123

> <PUBCHEM_MONOISOTOPIC_WEIGHT>
560.1505723

> <PUBCHEM_TOTAL_CHARGE>
0

> <PUBCHEM_HEAVY_ATOM_COUNT>
38

> <PUBCHEM_ATOM_DEF_STEREO_COUNT>
3

> <PUBCHEM_ATOM_UDEF_STEREO_COUNT>
0

> <PUBCHEM_BOND_DEF_STEREO_COUNT>
0

> <PUBCHEM_BOND_UDEF_STEREO_COUNT>
0

> <PUBCHEM_ISOTOPIC_ATOM_COUNT>
0

> <PUBCHEM_COMPONENT_COUNT>
1

> <PUBCHEM_CACTVS_TAUTO_COUNT>
-1

> <PUBCHEM_COORDINATE_TYPE>
1
5
255

> <PUBCHEM_BONDANNOTATIONS>
10  11  8
10  30  8
11  35  8
13  17  5
14  18  5
20  21  8
20  22  8
21  23  8
22  24  8
23  25  8
24  25  8
27  32  8
27  33  8
30  34  8
31  34  8
31  35  8
32  36  8
33  37  8
36  38  8
37  38  8
26  5  6

$$$$
11540687
  -OEChem-11282412102D

 62 64  0     0  0  0  0  0  0999 V2000
    6.6084    3.3070    0.0000 Cl  0  0  0  0  0  0  0  0  0  0  0  0
    4.7473    5.7716    0.0000 S   0  0  0  0  0  0  0  0  0  0  0  0
    6.5364   14.8594    0.0000 O   0  0  0  0  0  0  0  0  0  0  0  0
    6.0206    4.1161    0.0000 O   0  0  0  0  0  0  0  0  0  0  0  0
    0.5369    7.3347    0.0000 O   0  0  0  0  0  0  0  0  0  0  0  0
    5.6704   12.3594    0.0000 N   0  0  0  0  0  0  0  0  0  0  0  0
    5.6704   10.3594    0.0000 N   0  0  0  0  0  0  0  0  0  0  0  0
    6.5364    8.8594    0.0000 N   0  0  0  0  0  0  0  0  0  0  0  0
    5.6704    7.3594    0.0000 N   0  0  0  0  0  0  0  0  0  0  0  0
    3.9383    7.3594    0.0000 N   0  0  0  0  0  0  0  0  0  0  0  0
    3.1293    5.7716    0.0000 N   0  0  0  0  0  0  0  0  0  0  0  0
    4.6194    3.0980    0.0000 N   0  0  0  0  0  0  0  0  0  0  0  0
    4.8043   11.8594    0.0000 C   0  0  0  0  0  0  0  0  0  0  0  0
    6.5364   11.8594    0.0000 C   0  0  0  0  0  0  0  0  0  0  0  0
    4.8043   10.8594    0.0000 C   0  0  0  0  0  0  0  0  0  0  0  0
    6.5364   10.8594    0.0000 C   0  0  0  0  0  0  0  0  0  0  0  0
    5.6704   13.3594    0.0000 C   0  0  0  0  0  0  0  0  0  0  0  0
    5.6704    9.3594    0.0000 C   0  0  0  0  0  0  0  0  0  0  0  0
    6.5364   13.8594    0.0000 C   0  0  0  0  0  0  0  0  0  0  0  0
    4.8043    8.8594    0.0000 C   0  0  0  0  0  0  0  0  0  0  0  0
    4.8043    7.8594    0.0000 C   0  0  0  0  0  0  0  0  0  0  0  0
    6.5364    7.8594    0.0000 C   0  0  0  0  0  0  0  0  0  0  0  0
    7.4024    7.3594    0.0000 C   0  0  0  0  0  0  0  0  0  0  0  0
    3.9383    6.3594    0.0000 C   0  0  0  0  0  0  0  0  0  0  0  0
    4.4383    4.8205    0.0000 C   0  0  0  0  0  0  0  0  0  0  0  0
    3.4383    4.8205    0.0000 C   0  0  0  0  0  0  0  0  0  0  0  0
    5.2071    2.2890    0.0000 C   0  0  0  0  0  0  0  0  0  0  0  0
    5.0261    4.0115    0.0000 C   0  0  0  0  0  0  0  0  0  0  0  0
    4.8004    1.3754    0.0000 C   0  0  0  0  0  0  0  0  0  0  0  0
    6.2016    2.3935    0.0000 C   0  0  0  0  0  0  0  0  0  0  0  0
    5.3882    0.5664    0.0000 C   0  0  0  0  0  0  0  0  0  0  0  0
    3.8059    1.2709    0.0000 C   0  0  0  0  0  0  0  0  0  0  0  0
    6.7894    1.5845    0.0000 C   0  0  0  0  0  0  0  0  0  0  0  0
    6.3827    0.6709    0.0000 C   0  0  0  0  0  0  0  0  0  0  0  0
    4.5923   12.4420    0.0000 H   0  0  0  0  0  0  0  0  0  0  0  0
    4.1937   11.7517    0.0000 H   0  0  0  0  0  0  0  0  0  0  0  0
    7.1470   11.7517    0.0000 H   0  0  0  0  0  0  0  0  0  0  0  0
    6.7484   12.4420    0.0000 H   0  0  0  0  0  0  0  0  0  0  0  0
    4.1937   10.9670    0.0000 H   0  0  0  0  0  0  0  0  0  0  0  0
    4.5923   10.2768    0.0000 H   0  0  0  0  0  0  0  0  0  0  0  0
    6.7484   10.2768    0.0000 H   0  0  0  0  0  0  0  0  0  0  0  0
    7.1470   10.9670    0.0000 H   0  0  0  0  0  0  0  0  0  0  0  0
    5.4583   13.9420    0.0000 H   0  0  0  0  0  0  0  0  0  0  0  0
    5.0598   13.2517    0.0000 H   0  0  0  0  0  0  0  0  0  0  0  0
    6.7484   13.2768    0.0000 H   0  0  0  0  0  0  0  0  0  0  0  0
    7.1470   13.9670    0.0000 H   0  0  0  0  0  0  0  0  0  0  0  0
    4.2674    9.1694    0.0000 H   0  0  0  0  0  0  0  0  0  0  0  0
    7.0733   15.1694    0.0000 H   0  0  0  0  0  0  0  0  0  0  0  0
    3.4014    7.6694    0.0000 H   0  0  0  0  0  0  0  0  0  0  0  0
    7.0924    6.8224    0.0000 H   0  0  0  0  0  0  0  0  0  0  0  0
    7.9393    7.0494    0.0000 H   0  0  0  0  0  0  0  0  0  0  0  0
    7.7124    7.8963    0.0000 H   0  0  0  0  0  0  0  0  0  0  0  0
    3.0739    4.3190    0.0000 H   0  0  0  0  0  0  0  0  0  0  0  0
    4.0027    3.0332    0.0000 H   0  0  0  0  0  0  0  0  0  0  0  0
    5.1360    0.0000    0.0000 H   0  0  0  0  0  0  0  0  0  0  0  0
    3.7411    1.8875    0.0000 H   0  0  0  0  0  0  0  0  0  0  0  0
    3.1893    1.2061    0.0000 H   0  0  0  0  0  0  0  0  0  0  0  0
    3.8707    0.6543    0.0000 H   0  0  0  0  0  0  0  0  0  0  0  0
    7.4060    1.6493    0.0000 H   0  0  0  0  0  0  0  0  0  0  0  0
    6.7471    0.1693    0.0000 H   0  0  0  0  0  0  0  0  0  0  0  0
    1.0739    7.6447    0.0000 H   0  0  0  0  0  0  0  0  0  0  0  0
    0.0000    7.6447    0.0000 H   0  0  0  0  0  0  0  0  0  0  0  0
  1 30  1  0  0  0  0
  2 24  1  0  0  0  0
  2 25  1  0  0  0  0
  3 19  1  0  0  0  0
  3 48  1  0  0  0  0
  4 28  2  0  0  0  0
  5 61  1  0  0  0  0
  5 62  1  0  0  0  0
  6 13  1  0  0  0  0
  6 14  1  0  0  0  0
  6 17  1  0  0  0  0
  7 15  1  0  0  0  0
  7 16  1  0  0  0  0
  7 18  1  0  0  0  0
  8 18  2  0  0  0  0
  8 22  1  0  0  0  0
  9 21  1  0  0  0  0
  9 22  2  0  0  0  0
 10 21  1  0  0  0  0
 10 24  1  0  0  0  0
 10 49  1  0  0  0  0
 11 24  2  0  0  0  0
 11 26  1  0  0  0  0
 12 27  1  0  0  0  0
 12 28  1  0  0  0  0
 12 54  1  0  0  0  0
 13 15  1  0  0  0  0
 13 35  1  0  0  0  0
 13 36  1  0  0  0  0
 14 16  1  0  0  0  0
 14 37  1  0  0  0  0
 14 38  1  0  0  0  0
 15 39  1  0  0  0  0
 15 40  1  0  0  0  0
 16 41  1  0  0  0  0
 16 42  1  0  0  0  0
 17 19  1  0  0  0  0
 17 43  1  0  0  0  0
 17 44  1  0  0  0  0
 18 20  1  0  0  0  0
 19 45  1  0  0  0  0
 19 46  1  0  0  0  0
 20 21  2  0  0  0  0
 20 47  1  0  0  0  0
 22 23  1  0  0  0  0
 23 50  1  0  0  0  0
 23 51  1  0  0  0  0
 23 52  1  0  0  0  0
 25 26  2  0  0  0  0
 25 28  1  0  0  0  0
 26 53  1  0  0  0  0
 27 29  2  0  0  0  0
 27 30  1  0  0  0  0
 29 31  1  0  0  0  0
 29 32  1  0  0  0  0
 30 33  2  0  0  0  0
 31 34  2  0  0  0  0
 31 55  1  0  0  0  0
 32 56  1  0  0  0  0
 32 57  1  0  0  0  0
 32 58  1  0  0  0  0
 33 34  1  0  0  0  0
 33 59  1  0  0  0  0
 34 60  1  0  0  0  0
M  END
> <PUBCHEM_COMPOUND_CID>
11540687

> <PUBCHEM_COMPOUND_CANONICALIZED>
1

> <PUBCHEM_CACTVS_COMPLEXITY>
642

> <PUBCHEM_CACTVS_HBOND_ACCEPTOR>
10

> <PUBCHEM_CACTVS_HBOND_DONOR>
4

> <PUBCHEM_CACTVS_ROTATABLE_BOND>
7

> <PUBCHEM_CACTVS_SUBSKEYS>
AAADceB7sABEAAAAAAAAAAAAAAAAAWAAAAA8WIAAAAAAAAAB8AAAHgYQCAAADArh2yY/8ZfIEgisAjd3dACC8Kl1D7lJ2C04ZtiKeCrB29HUJIholALYyOcQgAAOAAAAIAACABAAAABAAAQAIAAAAAAAAA==

> <PUBCHEM_IUPAC_OPENEYE_NAME>
N-(2-chloro-6-methyl-phenyl)-2-[[6-[4-(2-hydroxyethyl)piperazin-1-yl]-2-methyl-pyrimidin-4-yl]amino]thiazole-5-carboxamide;hydrate

> <PUBCHEM_IUPAC_CAS_NAME>
N-(2-chloro-6-methylphenyl)-2-[[6-[4-(2-hydroxyethyl)-1-piperazinyl]-2-methyl-4-pyrimidinyl]amino]-5-thiazolecarboxamide;hydrate

> <PUBCHEM_IUPAC_NAME_MARKUP>
<I>N</I>-(2-chloro-6-methylphenyl)-2-[[6-[4-(2-hydroxyethyl)piperazin-1-yl]-2-methylpyrimidin-4-yl]amino]-1,3-thiazole-5-carboxamide;hydrate

> <PUBCHEM_IUPAC_NAME>
N-(2-chloro-6-methylphenyl)-2-[[6-[4-(2-hydroxyethyl)piperazin-1-yl]-2-methylpyrimidin-4-yl]amino]-1,3-thiazole-5-carboxamide;hydrate

> <PUBCHEM_IUPAC_SYSTEMATIC_NAME>
N-(2-chloranyl-6-methyl-phenyl)-2-[[6-[4-(2-hydroxyethyl)piperazin-1-yl]-2-methyl-pyrimidin-4-yl]amino]-1,3-thiazole-5-carboxamide;hydrate

> <PUBCHEM_IUPAC_TRADITIONAL_NAME>
N-(2-chloro-6-methyl-phenyl)-2-[[6-[4-(2-hydroxyethyl)piperazino]-2-methyl-pyrimidin-4-yl]amino]thiazole-5-carboxamide;hydrate

> <PUBCHEM_IUPAC_INCHI>
InChI=1S/C22H26ClN7O2S.H2O/c1-14-4-3-5-16(23)20(14)28-21(32)17-13-24-22(33-17)27-18-12-19(26-15(2)25-18)30-8-6-29(7-9-30)10-11-31;/h3-5,12-13,31H,6-11H2,1-2H3,(H,28,32)(H,24,25,26,27);1H2

> <PUBCHEM_IUPAC_INCHIKEY>
XHXFZZNHDVTMLI-UHFFFAOYSA-N

> <PUBCHEM_EXACT_MASS>
505.1662866

> <PUBCHEM_MOLECULAR_FORMULA>
C22H28ClN7O3S

> <PUBCHEM_MOLECULAR_WEIGHT>
506.0

> <PUBCHEM_OPENEYE_CAN_SMILES>
CC1=C(C(=CC=C1)Cl)NC(=O)C2=CN=C(S2)NC3=CC(=NC(=N3)C)N4CCN(CC4)CCO.O

> <PUBCHEM_OPENEYE_ISO_SMILES>
CC1=C(C(=CC=C1)Cl)NC(=O)C2=CN=C(S2)NC3=CC(=NC(=N3)C)N4CCN(CC4)CCO.O

> <PUBCHEM_CACTVS_TPSA>
136

> <PUBCHEM_MONOISOTOPIC_WEIGHT>
505.1662866

> <PUBCHEM_TOTAL_CHARGE>
0

> <PUBCHEM_HEAVY_ATOM_COUNT>
34

> <PUBCHEM_ATOM_DEF_STEREO_COUNT>
0

> <PUBCHEM_ATOM_UDEF_STEREO_COUNT>
0

> <PUBCHEM_BOND_DEF_STEREO_COUNT>
0

> <PUBCHEM_BOND_UDEF_STEREO_COUNT>
0

> <PUBCHEM_ISOTOPIC_ATOM_COUNT>
0

> <PUBCHEM_COMPONENT_COUNT>
2

> <PUBCHEM_CACTVS_TAUTO_COUNT>
-1

> <PUBCHEM_COORDINATE_TYPE>
1
5
255

> <PUBCHEM_BONDANNOTATIONS>
11  24  8
11  26  8
18  20  8
2  24  8
2  25  8
20  21  8
25  26  8
27  29  8
27  30  8
29  31  8
30  33  8
31  34  8
33  34  8
8  18  8
8  22  8
9  21  8
9  22  8

$$$$
118861389
  -OEChem-11282412102D

 72 75  0     1  0  0  0  0  0999 V2000
    4.4808   -0.1110    0.0000 F   0  0  0  0  0  0  0  0  0  0  0  0
    3.2961    0.6613    0.0000 F   0  0  0  0  0  0  0  0  0  0  0  0
    4.0684    1.8461    0.0000 F   0  0  0  0  0  0  0  0  0  0  0  0
    5.9209    0.3295    0.0000 O   0  0  0  0  0  0  0  0  0  0  0  0
   10.1921   -0.5405    0.0000 O   0  0  0  0  0  0  0  0  0  0  0  0
    8.4993    2.6430    0.0000 N   0  0  3  0  0  0  0  0  0  0  0  0
    4.6783   -5.0821    0.0000 N   0  0  0  0  0  0  0  0  0  0  0  0
    7.4742    5.0821    0.0000 N   0  0  0  0  0  0  0  0  0  0  0  0
    7.2101    1.4862    0.0000 N   0  0  0  0  0  0  0  0  0  0  0  0
    7.2566   -1.1591    0.0000 N   0  0  0  0  0  0  0  0  0  0  0  0
    5.9674   -2.3159    0.0000 N   0  0  0  0  0  0  0  0  0  0  0  0
    9.8349    1.1544    0.0000 N   0  0  0  0  0  0  0  0  0  0  0  0
    5.6103   -0.6210    0.0000 N   0  0  0  0  0  0  0  0  0  0  0  0
    7.8314    3.3872    0.0000 C   0  0  0  0  0  0  0  0  0  0  0  0
    3.7320   -3.7773    0.0000 C   0  0  0  0  0  0  0  0  0  0  0  0
    3.7320   -4.7773    0.0000 C   0  0  0  0  0  0  0  0  0  0  0  0
    4.6783   -3.4726    0.0000 C   0  0  0  0  0  0  0  0  0  0  0  0
    8.1421    4.3378    0.0000 C   0  0  0  0  0  0  0  0  0  0  0  0
    8.1886    1.6924    0.0000 C   0  0  0  0  0  0  0  0  0  0  0  0
    5.2619   -4.2773    0.0000 C   0  0  0  0  0  0  0  0  0  0  0  0
    8.8564    0.9481    0.0000 C   0  0  0  0  0  0  0  0  0  0  0  0
    4.9889   -2.5221    0.0000 C   0  0  0  0  0  0  0  0  0  0  0  0
    2.8660   -3.2773    0.0000 C   0  0  0  0  0  0  0  0  0  0  0  0
    2.8660   -5.2773    0.0000 C   0  0  0  0  0  0  0  0  0  0  0  0
    9.4778    2.8492    0.0000 C   0  0  0  0  0  0  0  0  0  0  0  0
    7.5673   -0.2086    0.0000 C   0  0  0  0  0  0  0  0  0  0  0  0
    8.5458   -0.0024    0.0000 C   0  0  0  0  0  0  0  0  0  0  0  0
    4.9889   -6.0326    0.0000 C   0  0  0  0  0  0  0  0  0  0  0  0
    6.8994    0.5357    0.0000 C   0  0  0  0  0  0  0  0  0  0  0  0
    2.0000   -3.7773    0.0000 C   0  0  0  0  0  0  0  0  0  0  0  0
    2.0000   -4.7773    0.0000 C   0  0  0  0  0  0  0  0  0  0  0  0
    7.7849    6.0326    0.0000 C   0  0  0  0  0  0  0  0  0  0  0  0
    6.4957    4.8758    0.0000 C   0  0  0  0  0  0  0  0  0  0  0  0
    6.2781   -1.3654    0.0000 C   0  0  0  0  0  0  0  0  0  0  0  0
    4.3211   -1.7778    0.0000 C   0  0  0  0  0  0  0  0  0  0  0  0
    4.6318   -0.8273    0.0000 C   0  0  0  0  0  0  0  0  0  0  0  0
    5.2531    1.0738    0.0000 C   0  0  0  0  0  0  0  0  0  0  0  0
   10.5028    0.4100    0.0000 C   0  0  0  0  0  0  0  0  0  0  0  0
    4.2746    0.8676    0.0000 C   0  0  0  0  0  0  0  0  0  0  0  0
   11.4813    0.6163    0.0000 C   0  0  0  0  0  0  0  0  0  0  0  0
   12.1491   -0.1280    0.0000 C   0  0  0  0  0  0  0  0  0  0  0  0
    7.2845    3.6793    0.0000 H   0  0  0  0  0  0  0  0  0  0  0  0
    7.4489    2.8994    0.0000 H   0  0  0  0  0  0  0  0  0  0  0  0
    8.6890    4.0458    0.0000 H   0  0  0  0  0  0  0  0  0  0  0  0
    8.5246    4.8257    0.0000 H   0  0  0  0  0  0  0  0  0  0  0  0
    5.8819   -4.2773    0.0000 H   0  0  0  0  0  0  0  0  0  0  0  0
    2.8660   -2.6573    0.0000 H   0  0  0  0  0  0  0  0  0  0  0  0
    2.8660   -5.8973    0.0000 H   0  0  0  0  0  0  0  0  0  0  0  0
    9.6056    2.2425    0.0000 H   0  0  0  0  0  0  0  0  0  0  0  0
   10.0844    2.9770    0.0000 H   0  0  0  0  0  0  0  0  0  0  0  0
    9.3499    3.4558    0.0000 H   0  0  0  0  0  0  0  0  0  0  0  0
    8.9598   -0.4639    0.0000 H   0  0  0  0  0  0  0  0  0  0  0  0
    4.3996   -6.2252    0.0000 H   0  0  0  0  0  0  0  0  0  0  0  0
    5.1815   -6.6219    0.0000 H   0  0  0  0  0  0  0  0  0  0  0  0
    5.5783   -5.8400    0.0000 H   0  0  0  0  0  0  0  0  0  0  0  0
    1.4631   -3.4673    0.0000 H   0  0  0  0  0  0  0  0  0  0  0  0
    1.4631   -5.0873    0.0000 H   0  0  0  0  0  0  0  0  0  0  0  0
    7.6707   -1.6206    0.0000 H   0  0  0  0  0  0  0  0  0  0  0  0
    8.3742    5.8400    0.0000 H   0  0  0  0  0  0  0  0  0  0  0  0
    7.9775    6.6219    0.0000 H   0  0  0  0  0  0  0  0  0  0  0  0
    7.1956    6.2252    0.0000 H   0  0  0  0  0  0  0  0  0  0  0  0
    6.3679    5.4825    0.0000 H   0  0  0  0  0  0  0  0  0  0  0  0
    5.8890    4.7480    0.0000 H   0  0  0  0  0  0  0  0  0  0  0  0
    6.6236    4.2692    0.0000 H   0  0  0  0  0  0  0  0  0  0  0  0
    3.7144   -1.9056    0.0000 H   0  0  0  0  0  0  0  0  0  0  0  0
   10.0276    1.7437    0.0000 H   0  0  0  0  0  0  0  0  0  0  0  0
    4.2177   -0.3658    0.0000 H   0  0  0  0  0  0  0  0  0  0  0  0
    5.7794    1.4014    0.0000 H   0  0  0  0  0  0  0  0  0  0  0  0
    5.0218    1.6490    0.0000 H   0  0  0  0  0  0  0  0  0  0  0  0
   11.6739    1.2056    0.0000 H   0  0  0  0  0  0  0  0  0  0  0  0
   11.9565   -0.7174    0.0000 H   0  0  0  0  0  0  0  0  0  0  0  0
   12.7558   -0.0002    0.0000 H   0  0  0  0  0  0  0  0  0  0  0  0
  1 39  1  0  0  0  0
  2 39  1  0  0  0  0
  3 39  1  0  0  0  0
  4 29  1  0  0  0  0
  4 37  1  0  0  0  0
  5 38  2  0  0  0  0
  6 14  1  0  0  0  0
  6 19  1  0  0  0  0
  6 25  1  0  0  0  0
  7 16  1  0  0  0  0
  7 20  1  0  0  0  0
  7 28  1  0  0  0  0
  8 18  1  0  0  0  0
  8 32  1  0  0  0  0
  8 33  1  0  0  0  0
  9 19  2  0  0  0  0
  9 29  1  0  0  0  0
 10 26  1  0  0  0  0
 10 34  1  0  0  0  0
 10 58  1  0  0  0  0
 11 22  2  0  0  0  0
 11 34  1  0  0  0  0
 12 21  1  0  0  0  0
 12 38  1  0  0  0  0
 12 66  1  0  0  0  0
 13 34  2  0  0  0  0
 13 36  1  0  0  0  0
 14 18  1  0  0  0  0
 14 42  1  0  0  0  0
 14 43  1  0  0  0  0
 15 16  1  0  0  0  0
 15 17  1  0  0  0  0
 15 23  2  0  0  0  0
 16 24  2  0  0  0  0
 17 20  2  0  0  0  0
 17 22  1  0  0  0  0
 18 44  1  0  0  0  0
 18 45  1  0  0  0  0
 19 21  1  0  0  0  0
 20 46  1  0  0  0  0
 21 27  2  0  0  0  0
 22 35  1  0  0  0  0
 23 30  1  0  0  0  0
 23 47  1  0  0  0  0
 24 31  1  0  0  0  0
 24 48  1  0  0  0  0
 25 49  1  0  0  0  0
 25 50  1  0  0  0  0
 25 51  1  0  0  0  0
 26 27  1  0  0  0  0
 26 29  2  0  0  0  0
 27 52  1  0  0  0  0
 28 53  1  0  0  0  0
 28 54  1  0  0  0  0
 28 55  1  0  0  0  0
 30 31  2  0  0  0  0
 30 56  1  0  0  0  0
 31 57  1  0  0  0  0
 32 59  1  0  0  0  0
 32 60  1  0  0  0  0
 32 61  1  0  0  0  0
 33 62  1  0  0  0  0
 33 63  1  0  0  0  0
 33 64  1  0  0  0  0
 35 36  2  0  0  0  0
 35 65  1  0  0  0  0
 36 67  1  0  0  0  0
 37 39  1  0  0  0  0
 37 68  1  0  0  0  0
 37 69  1  0  0  0  0
 38 40  1  0  0  0  0
 40 41  2  0  0  0  0
 40 70  1  0  0  0  0
 41 71  1  0  0  0  0
 41 72  1  0  0  0  0
M  END
> <PUBCHEM_COMPOUND_CID>
118861389

> <PUBCHEM_COMPOUND_CANONICALIZED>
1

> <PUBCHEM_CACTVS_COMPLEXITY>
865

> <PUBCHEM_CACTVS_HBOND_ACCEPTOR>
11

> <PUBCHEM_CACTVS_HBOND_DONOR>
2

> <PUBCHEM_CACTVS_ROTATABLE_BOND>
11

> <PUBCHEM_CACTVS_SUBSKEYS>
AAADceB78YAAAAAAAAAAAAAAAAAAAWAAAAA8WIAAAAAAAFgB/gAAHwAQAAAADAjhnhY/9PfMFACoAzd3dACCiCkxMqAJ2CA9fNiObuLE+dufPCjs1BPY6KewkMIOgAAAAAACAAAAAAAAAAQAAAAAAAAAAA==

> <PUBCHEM_IUPAC_OPENEYE_NAME>
N-[2-[2-(dimethylamino)ethyl-methyl-amino]-5-[[4-(1-methylindol-3-yl)pyrimidin-2-yl]amino]-6-(2,2,2-trifluoroethoxy)-3-pyridyl]prop-2-enamide

> <PUBCHEM_IUPAC_CAS_NAME>
N-[2-[2-(dimethylamino)ethyl-methylamino]-5-[[4-(1-methyl-3-indolyl)-2-pyrimidinyl]amino]-6-(2,2,2-trifluoroethoxy)-3-pyridinyl]-2-propenamide

> <PUBCHEM_IUPAC_NAME_MARKUP>
<I>N</I>-[2-[2-(dimethylamino)ethyl-methylamino]-5-[[4-(1-methylindol-3-yl)pyrimidin-2-yl]amino]-6-(2,2,2-trifluoroethoxy)pyridin-3-yl]prop-2-enamide

> <PUBCHEM_IUPAC_NAME>
N-[2-[2-(dimethylamino)ethyl-methylamino]-5-[[4-(1-methylindol-3-yl)pyrimidin-2-yl]amino]-6-(2,2,2-trifluoroethoxy)pyridin-3-yl]prop-2-enamide

> <PUBCHEM_IUPAC_SYSTEMATIC_NAME>
N-[2-[2-(dimethylamino)ethyl-methyl-amino]-5-[[4-(1-methylindol-3-yl)pyrimidin-2-yl]amino]-6-[2,2,2-tris(fluoranyl)ethoxy]pyridin-3-yl]prop-2-enamide

> <PUBCHEM_IUPAC_TRADITIONAL_NAME>
N-[2-[2-(dimethylamino)ethyl-methyl-amino]-5-[[4-(1-methylindol-3-yl)pyrimidin-2-yl]amino]-6-(2,2,2-trifluoroethoxy)-3-pyridyl]acrylamide

> <PUBCHEM_IUPAC_INCHI>
InChI=1S/C28H31F3N8O2/c1-6-24(40)33-21-15-22(26(41-17-28(29,30)31)36-25(21)38(4)14-13-37(2)3)35-27-32-12-11-20(34-27)19-16-39(5)23-10-8-7-9-18(19)23/h6-12,15-16H,1,13-14,17H2,2-5H3,(H,33,40)(H,32,34,35)

> <PUBCHEM_IUPAC_INCHIKEY>
GHKOONMJXNWOIW-UHFFFAOYSA-N

> <PUBCHEM_XLOGP3_AA>
4.4

> <PUBCHEM_EXACT_MASS>
568.25220675

> <PUBCHEM_MOLECULAR_FORMULA>
C28H31F3N8O2

> <PUBCHEM_MOLECULAR_WEIGHT>
568.6

> <PUBCHEM_OPENEYE_CAN_SMILES>
CN1C=C(C2=CC=CC=C21)C3=NC(=NC=C3)NC4=C(N=C(C(=C4)NC(=O)C=C)N(C)CCN(C)C)OCC(F)(F)F

> <PUBCHEM_OPENEYE_ISO_SMILES>
CN1C=C(C2=CC=CC=C21)C3=NC(=NC=C3)NC4=C(N=C(C(=C4)NC(=O)C=C)N(C)CCN(C)C)OCC(F)(F)F

> <PUBCHEM_CACTVS_TPSA>
100

> <PUBCHEM_MONOISOTOPIC_WEIGHT>
568.25220675

> <PUBCHEM_TOTAL_CHARGE>
0

> <PUBCHEM_HEAVY_ATOM_COUNT>
41

> <PUBCHEM_ATOM_DEF_STEREO_COUNT>
0

> <PUBCHEM_ATOM_UDEF_STEREO_COUNT>
0

> <PUBCHEM_BOND_DEF_STEREO_COUNT>
0

> <PUBCHEM_BOND_UDEF_STEREO_COUNT>
0

> <PUBCHEM_ISOTOPIC_ATOM_COUNT>
0

> <PUBCHEM_COMPONENT_COUNT>
1

> <PUBCHEM_CACTVS_TAUTO_COUNT>
-1

> <PUBCHEM_COORDINATE_TYPE>
1
5
255

> <PUBCHEM_BONDANNOTATIONS>
11  22  8
11  34  8
13  34  8
13  36  8
15  16  8
15  17  8
15  23  8
16  24  8
17  20  8
19  21  8
21  27  8
22  35  8
23  30  8
24  31  8
26  27  8
26  29  8
30  31  8
35  36  8
7  16  8
7  20  8
9  19  8
9  29  8

$$$$
10458325
  -OEChem-11282412102D

 58 62  0     1  0  0  0  0  0999 V2000
   11.5673   -4.7944    0.0000 Cl  0  0  0  0  0  0  0  0  0  0  0  0
   13.3108   -3.8145    0.0000 Cl  0  0  0  0  0  0  0  0  0  0  0  0
    9.8469   -3.7744    0.0000 F   0  0  0  0  0  0  0  0  0  0  0  0
    6.3896    1.2600    0.0000 O   0  0  0  0  0  0  0  0  0  0  0  0
    6.3896   -0.7400    0.0000 O   0  0  0  0  0  0  0  0  0  0  0  0
    2.8660    4.2944    0.0000 N   0  0  0  0  0  0  0  0  0  0  0  0
    9.8816    1.2947    0.0000 N   0  0  0  0  0  0  0  0  0  0  0  0
   10.7877   -0.2608    0.0000 N   0  0  0  0  0  0  0  0  0  0  0  0
    9.8701   -1.7746    0.0000 N   0  0  0  0  0  0  0  0  0  0  0  0
    4.4409    3.9625    0.0000 C   0  0  2  0  0  0  0  0  0  0  0  0
    3.9409    3.0964    0.0000 C   0  0  1  0  0  0  0  0  0  0  0  0
    5.5236    2.7600    0.0000 C   0  0  0  0  0  0  0  0  0  0  0  0
    5.4190    3.7546    0.0000 C   0  0  0  0  0  0  0  0  0  0  0  0
    4.6100    2.3533    0.0000 C   0  0  0  0  0  0  0  0  0  0  0  0
    3.7738    4.6995    0.0000 C   0  0  0  0  0  0  0  0  0  0  0  0
    2.9691    3.3057    0.0000 C   0  0  0  0  0  0  0  0  0  0  0  0
    6.3896    2.2600    0.0000 C   0  0  0  0  0  0  0  0  0  0  0  0
    2.0000    4.7944    0.0000 C   0  0  0  0  0  0  0  0  0  0  0  0
    7.2556    0.7600    0.0000 C   0  0  0  0  0  0  0  0  0  0  0  0
    7.2556   -0.2400    0.0000 C   0  0  0  0  0  0  0  0  0  0  0  0
    8.1216    1.2600    0.0000 C   0  0  0  0  0  0  0  0  0  0  0  0
    8.9877    0.7600    0.0000 C   0  0  0  0  0  0  0  0  0  0  0  0
    8.1216   -0.7400    0.0000 C   0  0  0  0  0  0  0  0  0  0  0  0
    8.9877   -0.2400    0.0000 C   0  0  0  0  0  0  0  0  0  0  0  0
    9.8816   -0.7746    0.0000 C   0  0  0  0  0  0  0  0  0  0  0  0
    6.3896   -1.7400    0.0000 C   0  0  0  0  0  0  0  0  0  0  0  0
   10.7877    0.7809    0.0000 C   0  0  0  0  0  0  0  0  0  0  0  0
   10.7302   -2.2845    0.0000 C   0  0  0  0  0  0  0  0  0  0  0  0
   10.7187   -3.2845    0.0000 C   0  0  0  0  0  0  0  0  0  0  0  0
   11.6020   -1.7946    0.0000 C   0  0  0  0  0  0  0  0  0  0  0  0
   11.5789   -3.7944    0.0000 C   0  0  0  0  0  0  0  0  0  0  0  0
   12.4622   -2.3046    0.0000 C   0  0  0  0  0  0  0  0  0  0  0  0
   12.4506   -3.3045    0.0000 C   0  0  0  0  0  0  0  0  0  0  0  0
    4.8649    4.6992    0.0000 H   0  0  0  0  0  0  0  0  0  0  0  0
    3.5149    2.3609    0.0000 H   0  0  0  0  0  0  0  0  0  0  0  0
    6.0436    3.0977    0.0000 H   0  0  0  0  0  0  0  0  0  0  0  0
    6.0390    3.7546    0.0000 H   0  0  0  0  0  0  0  0  0  0  0  0
    5.4838    4.3712    0.0000 H   0  0  0  0  0  0  0  0  0  0  0  0
    4.1084    1.9889    0.0000 H   0  0  0  0  0  0  0  0  0  0  0  0
    4.9200    1.8164    0.0000 H   0  0  0  0  0  0  0  0  0  0  0  0
    4.2747    5.0649    0.0000 H   0  0  0  0  0  0  0  0  0  0  0  0
    3.4630    5.2360    0.0000 H   0  0  0  0  0  0  0  0  0  0  0  0
    2.3491    3.3066    0.0000 H   0  0  0  0  0  0  0  0  0  0  0  0
    2.9030    2.6892    0.0000 H   0  0  0  0  0  0  0  0  0  0  0  0
    7.0002    2.1524    0.0000 H   0  0  0  0  0  0  0  0  0  0  0  0
    6.6016    2.8426    0.0000 H   0  0  0  0  0  0  0  0  0  0  0  0
    2.3100    5.3313    0.0000 H   0  0  0  0  0  0  0  0  0  0  0  0
    1.4631    5.1044    0.0000 H   0  0  0  0  0  0  0  0  0  0  0  0
    1.6900    4.2574    0.0000 H   0  0  0  0  0  0  0  0  0  0  0  0
    8.1216    1.8800    0.0000 H   0  0  0  0  0  0  0  0  0  0  0  0
    8.1216   -1.3600    0.0000 H   0  0  0  0  0  0  0  0  0  0  0  0
    5.7696   -1.7400    0.0000 H   0  0  0  0  0  0  0  0  0  0  0  0
    6.3896   -2.3600    0.0000 H   0  0  0  0  0  0  0  0  0  0  0  0
    7.0096   -1.7400    0.0000 H   0  0  0  0  0  0  0  0  0  0  0  0
   11.3234    1.0929    0.0000 H   0  0  0  0  0  0  0  0  0  0  0  0
    9.3296   -2.0783    0.0000 H   0  0  0  0  0  0  0  0  0  0  0  0
   11.6092   -1.1746    0.0000 H   0  0  0  0  0  0  0  0  0  0  0  0
   13.0027   -2.0008    0.0000 H   0  0  0  0  0  0  0  0  0  0  0  0
  1 31  1  0  0  0  0
  2 33  1  0  0  0  0
  3 29  1  0  0  0  0
  4 17  1  0  0  0  0
  4 19  1  0  0  0  0
  5 20  1  0  0  0  0
  5 26  1  0  0  0  0
  6 15  1  0  0  0  0
  6 16  1  0  0  0  0
  6 18  1  0  0  0  0
  7 22  1  0  0  0  0
  7 27  2  0  0  0  0
  8 25  2  0  0  0  0
  8 27  1  0  0  0  0
  9 25  1  0  0  0  0
  9 28  1  0  0  0  0
  9 56  1  0  0  0  0
 10 11  1  0  0  0  0
 10 13  1  0  0  0  0
 10 15  1  0  0  0  0
 10 34  1  6  0  0  0
 11 14  1  0  0  0  0
 11 16  1  0  0  0  0
 11 35  1  6  0  0  0
 12 13  1  0  0  0  0
 12 14  1  0  0  0  0
 12 17  1  0  0  0  0
 12 36  1  0  0  0  0
 13 37  1  0  0  0  0
 13 38  1  0  0  0  0
 14 39  1  0  0  0  0
 14 40  1  0  0  0  0
 15 41  1  0  0  0  0
 15 42  1  0  0  0  0
 16 43  1  0  0  0  0
 16 44  1  0  0  0  0
 17 45  1  0  0  0  0
 17 46  1  0  0  0  0
 18 47  1  0  0  0  0
 18 48  1  0  0  0  0
 18 49  1  0  0  0  0
 19 20  2  0  0  0  0
 19 21  1  0  0  0  0
 20 23  1  0  0  0  0
 21 22  2  0  0  0  0
 21 50  1  0  0  0  0
 22 24  1  0  0  0  0
 23 24  2  0  0  0  0
 23 51  1  0  0  0  0
 24 25  1  0  0  0  0
 26 52  1  0  0  0  0
 26 53  1  0  0  0  0
 26 54  1  0  0  0  0
 27 55  1  0  0  0  0
 28 29  2  0  0  0  0
 28 30  1  0  0  0  0
 29 31  1  0  0  0  0
 30 32  2  0  0  0  0
 30 57  1  0  0  0  0
 31 33  2  0  0  0  0
 32 33  1  0  0  0  0
 32 58  1  0  0  0  0
M  END
> <PUBCHEM_COMPOUND_CID>
10458325

> <PUBCHEM_COMPOUND_CANONICALIZED>
1

> <PUBCHEM_CACTVS_COMPLEXITY>
652

> <PUBCHEM_CACTVS_HBOND_ACCEPTOR>
7

> <PUBCHEM_CACTVS_HBOND_DONOR>
1

> <PUBCHEM_CACTVS_ROTATABLE_BOND>
6

> <PUBCHEM_CACTVS_SUBSKEYS>
AAADceB7sQAGAAAAAAAAAAAAAAAAAeIAAAA8YIAAAAAWAACx9AAAHwIQAAAADQ7hni439vfIFACgAyZjZACCiCkxJ6AJ2mA+7piNLuLF+tuGPCru0BvK6Cew0BMOoEBBAgICQARAgIIEBASACQAACAAAAA==

> <PUBCHEM_IUPAC_OPENEYE_NAME>
7-[[(3aR,6aS)-2-methyl-3,3a,4,5,6,6a-hexahydro-1H-cyclopenta[c]pyrrol-5-yl]methoxy]-N-(3,4-dichloro-2-fluoro-phenyl)-6-methoxy-quinazolin-4-amine

> <PUBCHEM_IUPAC_CAS_NAME>
7-[[(3aR,6aS)-2-methyl-3,3a,4,5,6,6a-hexahydro-1H-cyclopenta[c]pyrrol-5-yl]methoxy]-N-(3,4-dichloro-2-fluorophenyl)-6-methoxy-4-quinazolinamine

> <PUBCHEM_IUPAC_NAME_MARKUP>
7-[[(3<I>a</I><I>R</I>,6<I>a</I><I>S</I>)-2-methyl-3,3<I>a</I>,4,5,6,6<I>a</I>-hexahydro-1<I>H</I>-cyclopenta[c]pyrrol-5-yl]methoxy]-<I>N</I>-(3,4-dichloro-2-fluorophenyl)-6-methoxyquinazolin-4-amine

> <PUBCHEM_IUPAC_NAME>
7-[[(3aR,6aS)-2-methyl-3,3a,4,5,6,6a-hexahydro-1H-cyclopenta[c]pyrrol-5-yl]methoxy]-N-(3,4-dichloro-2-fluorophenyl)-6-methoxyquinazolin-4-amine

> <PUBCHEM_IUPAC_SYSTEMATIC_NAME>
7-[[(3aR,6aS)-2-methyl-3,3a,4,5,6,6a-hexahydro-1H-cyclopenta[c]pyrrol-5-yl]methoxy]-N-[3,4-bis(chloranyl)-2-fluoranyl-phenyl]-6-methoxy-quinazolin-4-amine

> <PUBCHEM_IUPAC_TRADITIONAL_NAME>
[7-[[(3aR,6aS)-2-methyl-3,3a,4,5,6,6a-hexahydro-1H-cyclopenta[c]pyrrol-5-yl]methoxy]-6-methoxy-quinazolin-4-yl]-(3,4-dichloro-2-fluoro-phenyl)amine

> <PUBCHEM_IUPAC_INCHI>
InChI=1S/C24H25Cl2FN4O2/c1-31-9-14-5-13(6-15(14)10-31)11-33-21-8-19-16(7-20(21)32-2)24(29-12-28-19)30-18-4-3-17(25)22(26)23(18)27/h3-4,7-8,12-15H,5-6,9-11H2,1-2H3,(H,28,29,30)/t13?,14-,15+

> <PUBCHEM_IUPAC_INCHIKEY>
HVXKQKFEHMGHSL-GOOCMWNKSA-N

> <PUBCHEM_XLOGP3_AA>
5.8

> <PUBCHEM_EXACT_MASS>
490.1338596

> <PUBCHEM_MOLECULAR_FORMULA>
C24H25Cl2FN4O2

> <PUBCHEM_MOLECULAR_WEIGHT>
491.4

> <PUBCHEM_OPENEYE_CAN_SMILES>
CN1CC2CC(CC2C1)COC3=C(C=C4C(=C3)N=CN=C4NC5=C(C(=C(C=C5)Cl)Cl)F)OC

> <PUBCHEM_OPENEYE_ISO_SMILES>
CN1C[C@H]2CC(C[C@H]2C1)COC3=C(C=C4C(=C3)N=CN=C4NC5=C(C(=C(C=C5)Cl)Cl)F)OC

> <PUBCHEM_CACTVS_TPSA>
59.5

> <PUBCHEM_MONOISOTOPIC_WEIGHT>
490.1338596

> <PUBCHEM_TOTAL_CHARGE>
0

> <PUBCHEM_HEAVY_ATOM_COUNT>
33

> <PUBCHEM_ATOM_DEF_STEREO_COUNT>
2

> <PUBCHEM_ATOM_UDEF_STEREO_COUNT>
0

> <PUBCHEM_BOND_DEF_STEREO_COUNT>
0

> <PUBCHEM_BOND_UDEF_STEREO_COUNT>
0

> <PUBCHEM_ISOTOPIC_ATOM_COUNT>
0

> <PUBCHEM_COMPONENT_COUNT>
1

> <PUBCHEM_CACTVS_TAUTO_COUNT>
-1

> <PUBCHEM_COORDINATE_TYPE>
1
5
255

> <PUBCHEM_BONDANNOTATIONS>
10  34  6
11  35  6
19  20  8
19  21  8
20  23  8
21  22  8
22  24  8
23  24  8
24  25  8
28  29  8
28  30  8
29  31  8
30  32  8
31  33  8
32  33  8
7  22  8
7  27  8
8  25  8
8  27  8

$$$$
123596
  -OEChem-11282412102D

 77 80  0     0  0  0  0  0  0999 V2000
   12.3447    6.7055    0.0000 S   0  0  0  0  0  0  0  0  0  0  0  0
    5.8067    6.1200    0.0000 O   0  0  0  0  0  0  0  0  0  0  0  0
   13.2107    7.2055    0.0000 O   0  0  0  0  0  0  0  0  0  0  0  0
   11.8447    7.5715    0.0000 O   0  0  0  0  0  0  0  0  0  0  0  0
   12.8447    5.8394    0.0000 O   0  0  0  0  0  0  0  0  0  0  0  0
    1.4766    3.6200    0.0000 N   0  0  0  0  0  0  0  0  0  0  0  0
    1.4766    1.6200    0.0000 N   0  0  0  0  0  0  0  0  0  0  0  0
    4.9407    7.6200    0.0000 N   0  0  0  0  0  0  0  0  0  0  0  0
    6.6728   10.6200    0.0000 N   0  0  0  0  0  0  0  0  0  0  0  0
    4.9407   10.6200    0.0000 N   0  0  0  0  0  0  0  0  0  0  0  0
    5.8067   12.1200    0.0000 N   0  0  0  0  0  0  0  0  0  0  0  0
    1.4766   10.6200    0.0000 N   0  0  0  0  0  0  0  0  0  0  0  0
    0.6106    3.1200    0.0000 C   0  0  0  0  0  0  0  0  0  0  0  0
    2.3426    3.1200    0.0000 C   0  0  0  0  0  0  0  0  0  0  0  0
    0.6106    2.1200    0.0000 C   0  0  0  0  0  0  0  0  0  0  0  0
    2.3426    2.1200    0.0000 C   0  0  0  0  0  0  0  0  0  0  0  0
    1.4766    4.6200    0.0000 C   0  0  0  0  0  0  0  0  0  0  0  0
    1.4766    0.6200    0.0000 C   0  0  0  0  0  0  0  0  0  0  0  0
    2.3426    5.1200    0.0000 C   0  0  0  0  0  0  0  0  0  0  0  0
    3.2087    4.6200    0.0000 C   0  0  0  0  0  0  0  0  0  0  0  0
    2.3426    6.1200    0.0000 C   0  0  0  0  0  0  0  0  0  0  0  0
    4.0747    5.1200    0.0000 C   0  0  0  0  0  0  0  0  0  0  0  0
    3.2087    6.6200    0.0000 C   0  0  0  0  0  0  0  0  0  0  0  0
    4.0747    6.1200    0.0000 C   0  0  0  0  0  0  0  0  0  0  0  0
    4.9407    6.6200    0.0000 C   0  0  0  0  0  0  0  0  0  0  0  0
    5.8067    8.1200    0.0000 C   0  0  0  0  0  0  0  0  0  0  0  0
    5.8067    9.1200    0.0000 C   0  0  0  0  0  0  0  0  0  0  0  0
    6.6728    9.6200    0.0000 C   0  0  0  0  0  0  0  0  0  0  0  0
    6.6728    7.6200    0.0000 C   0  0  0  0  0  0  0  0  0  0  0  0
    7.5388    9.1200    0.0000 C   0  0  0  0  0  0  0  0  0  0  0  0
    7.5388    8.1200    0.0000 C   0  0  0  0  0  0  0  0  0  0  0  0
    8.4048    9.6200    0.0000 C   0  0  0  0  0  0  0  0  0  0  0  0
    5.8067   11.1200    0.0000 C   0  0  0  0  0  0  0  0  0  0  0  0
    4.0747   11.1200    0.0000 C   0  0  0  0  0  0  0  0  0  0  0  0
    3.2087   10.6200    0.0000 C   0  0  0  0  0  0  0  0  0  0  0  0
    4.0747   12.1200    0.0000 C   0  0  0  0  0  0  0  0  0  0  0  0
    4.9407   12.6200    0.0000 C   0  0  0  0  0  0  0  0  0  0  0  0
    3.2087    9.6200    0.0000 C   0  0  0  0  0  0  0  0  0  0  0  0
    2.3426   11.1200    0.0000 C   0  0  0  0  0  0  0  0  0  0  0  0
    2.3426    9.1200    0.0000 C   0  0  0  0  0  0  0  0  0  0  0  0
    1.4766    9.6200    0.0000 C   0  0  0  0  0  0  0  0  0  0  0  0
   11.4787    6.2055    0.0000 C   0  0  0  0  0  0  0  0  0  0  0  0
    0.3985    3.7026    0.0000 H   0  0  0  0  0  0  0  0  0  0  0  0
    0.0000    3.0123    0.0000 H   0  0  0  0  0  0  0  0  0  0  0  0
    2.9532    3.0123    0.0000 H   0  0  0  0  0  0  0  0  0  0  0  0
    2.5547    3.7026    0.0000 H   0  0  0  0  0  0  0  0  0  0  0  0
    0.0000    2.2277    0.0000 H   0  0  0  0  0  0  0  0  0  0  0  0
    0.3985    1.5374    0.0000 H   0  0  0  0  0  0  0  0  0  0  0  0
    2.5547    1.5374    0.0000 H   0  0  0  0  0  0  0  0  0  0  0  0
    2.9532    2.2277    0.0000 H   0  0  0  0  0  0  0  0  0  0  0  0
    1.2646    5.2026    0.0000 H   0  0  0  0  0  0  0  0  0  0  0  0
    0.8660    4.5123    0.0000 H   0  0  0  0  0  0  0  0  0  0  0  0
    0.8566    0.6200    0.0000 H   0  0  0  0  0  0  0  0  0  0  0  0
    1.4766    0.0000    0.0000 H   0  0  0  0  0  0  0  0  0  0  0  0
    2.0966    0.6200    0.0000 H   0  0  0  0  0  0  0  0  0  0  0  0
    3.2087    4.0000    0.0000 H   0  0  0  0  0  0  0  0  0  0  0  0
    1.8057    6.4300    0.0000 H   0  0  0  0  0  0  0  0  0  0  0  0
    4.6116    4.8100    0.0000 H   0  0  0  0  0  0  0  0  0  0  0  0
    3.2087    7.2400    0.0000 H   0  0  0  0  0  0  0  0  0  0  0  0
    4.4038    7.9300    0.0000 H   0  0  0  0  0  0  0  0  0  0  0  0
    5.2698    9.4300    0.0000 H   0  0  0  0  0  0  0  0  0  0  0  0
    6.6728    7.0000    0.0000 H   0  0  0  0  0  0  0  0  0  0  0  0
    8.0757    7.8100    0.0000 H   0  0  0  0  0  0  0  0  0  0  0  0
    7.2097   10.9300    0.0000 H   0  0  0  0  0  0  0  0  0  0  0  0
    8.7148    9.0831    0.0000 H   0  0  0  0  0  0  0  0  0  0  0  0
    8.9418    9.9300    0.0000 H   0  0  0  0  0  0  0  0  0  0  0  0
    8.0948   10.1569    0.0000 H   0  0  0  0  0  0  0  0  0  0  0  0
    3.5378   12.4300    0.0000 H   0  0  0  0  0  0  0  0  0  0  0  0
    4.9407   13.2400    0.0000 H   0  0  0  0  0  0  0  0  0  0  0  0
    3.7456    9.3100    0.0000 H   0  0  0  0  0  0  0  0  0  0  0  0
    2.3426   11.7400    0.0000 H   0  0  0  0  0  0  0  0  0  0  0  0
    2.3426    8.5000    0.0000 H   0  0  0  0  0  0  0  0  0  0  0  0
    0.9397    9.3100    0.0000 H   0  0  0  0  0  0  0  0  0  0  0  0
   11.1687    6.7424    0.0000 H   0  0  0  0  0  0  0  0  0  0  0  0
   10.9417    5.8955    0.0000 H   0  0  0  0  0  0  0  0  0  0  0  0
   11.7887    5.6685    0.0000 H   0  0  0  0  0  0  0  0  0  0  0  0
   13.7477    6.8955    0.0000 H   0  0  0  0  0  0  0  0  0  0  0  0
  1  3  1  0  0  0  0
  1  4  2  0  0  0  0
  1  5  2  0  0  0  0
  1 42  1  0  0  0  0
  2 25  2  0  0  0  0
  3 77  1  0  0  0  0
  6 13  1  0  0  0  0
  6 14  1  0  0  0  0
  6 17  1  0  0  0  0
  7 15  1  0  0  0  0
  7 16  1  0  0  0  0
  7 18  1  0  0  0  0
  8 25  1  0  0  0  0
  8 26  1  0  0  0  0
  8 60  1  0  0  0  0
  9 28  1  0  0  0  0
  9 33  1  0  0  0  0
  9 64  1  0  0  0  0
 10 33  1  0  0  0  0
 10 34  2  0  0  0  0
 11 33  2  0  0  0  0
 11 37  1  0  0  0  0
 12 39  1  0  0  0  0
 12 41  2  0  0  0  0
 13 15  1  0  0  0  0
 13 43  1  0  0  0  0
 13 44  1  0  0  0  0
 14 16  1  0  0  0  0
 14 45  1  0  0  0  0
 14 46  1  0  0  0  0
 15 47  1  0  0  0  0
 15 48  1  0  0  0  0
 16 49  1  0  0  0  0
 16 50  1  0  0  0  0
 17 19  1  0  0  0  0
 17 51  1  0  0  0  0
 17 52  1  0  0  0  0
 18 53  1  0  0  0  0
 18 54  1  0  0  0  0
 18 55  1  0  0  0  0
 19 20  2  0  0  0  0
 19 21  1  0  0  0  0
 20 22  1  0  0  0  0
 20 56  1  0  0  0  0
 21 23  2  0  0  0  0
 21 57  1  0  0  0  0
 22 24  2  0  0  0  0
 22 58  1  0  0  0  0
 23 24  1  0  0  0  0
 23 59  1  0  0  0  0
 24 25  1  0  0  0  0
 26 27  2  0  0  0  0
 26 29  1  0  0  0  0
 27 28  1  0  0  0  0
 27 61  1  0  0  0  0
 28 30  2  0  0  0  0
 29 31  2  0  0  0  0
 29 62  1  0  0  0  0
 30 31  1  0  0  0  0
 30 32  1  0  0  0  0
 31 63  1  0  0  0  0
 32 65  1  0  0  0  0
 32 66  1  0  0  0  0
 32 67  1  0  0  0  0
 34 35  1  0  0  0  0
 34 36  1  0  0  0  0
 35 38  1  0  0  0  0
 35 39  2  0  0  0  0
 36 37  2  0  0  0  0
 36 68  1  0  0  0  0
 37 69  1  0  0  0  0
 38 40  2  0  0  0  0
 38 70  1  0  0  0  0
 39 71  1  0  0  0  0
 40 41  1  0  0  0  0
 40 72  1  0  0  0  0
 41 73  1  0  0  0  0
 42 74  1  0  0  0  0
 42 75  1  0  0  0  0
 42 76  1  0  0  0  0
M  END
> <PUBCHEM_COMPOUND_CID>
123596

> <PUBCHEM_COMPOUND_CANONICALIZED>
1

> <PUBCHEM_CACTVS_COMPLEXITY>
799

> <PUBCHEM_CACTVS_HBOND_ACCEPTOR>
10

> <PUBCHEM_CACTVS_HBOND_DONOR>
3

> <PUBCHEM_CACTVS_ROTATABLE_BOND>
7

> <PUBCHEM_CACTVS_SUBSKEYS>
AAADcfB7uABAAAAAAAAAAAAAAAAAAAAAAAA8eLECAAAAAAAB9AAAHgQQCAAADAjBngS/0JfIEIKoAzV3dHCCgCk1AqAJ2CE4ZNiIaPLA3dGUJQholALIyacYiACOSAAAAAQCAACQAAAACAQAAAAAAAAAAA==

> <PUBCHEM_IUPAC_OPENEYE_NAME>
methanesulfonic acid;4-[(4-methylpiperazin-1-yl)methyl]-N-[4-methyl-3-[[4-(3-pyridyl)pyrimidin-2-yl]amino]phenyl]benzamide

> <PUBCHEM_IUPAC_CAS_NAME>
methanesulfonic acid;4-[(4-methyl-1-piperazinyl)methyl]-N-[4-methyl-3-[[4-(3-pyridinyl)-2-pyrimidinyl]amino]phenyl]benzamide

> <PUBCHEM_IUPAC_NAME_MARKUP>
methanesulfonic acid;4-[(4-methylpiperazin-1-yl)methyl]-<I>N</I>-[4-methyl-3-[(4-pyridin-3-ylpyrimidin-2-yl)amino]phenyl]benzamide

> <PUBCHEM_IUPAC_NAME>
methanesulfonic acid;4-[(4-methylpiperazin-1-yl)methyl]-N-[4-methyl-3-[(4-pyridin-3-ylpyrimidin-2-yl)amino]phenyl]benzamide

> <PUBCHEM_IUPAC_SYSTEMATIC_NAME>
methanesulfonic acid;4-[(4-methylpiperazin-1-yl)methyl]-N-[4-methyl-3-[(4-pyridin-3-ylpyrimidin-2-yl)amino]phenyl]benzamide

> <PUBCHEM_IUPAC_TRADITIONAL_NAME>
mesylic acid;4-[(4-methylpiperazino)methyl]-N-[4-methyl-3-[[4-(3-pyridyl)pyrimidin-2-yl]amino]phenyl]benzamide

> <PUBCHEM_IUPAC_INCHI>
InChI=1S/C29H31N7O.CH4O3S/c1-21-5-10-25(18-27(21)34-29-31-13-11-26(33-29)24-4-3-12-30-19-24)32-28(37)23-8-6-22(7-9-23)20-36-16-14-35(2)15-17-36;1-5(2,3)4/h3-13,18-19H,14-17,20H2,1-2H3,(H,32,37)(H,31,33,34);1H3,(H,2,3,4)

> <PUBCHEM_IUPAC_INCHIKEY>
YLMAHDNUQAMNNX-UHFFFAOYSA-N

> <PUBCHEM_EXACT_MASS>
589.24712380

> <PUBCHEM_MOLECULAR_FORMULA>
C30H35N7O4S

> <PUBCHEM_MOLECULAR_WEIGHT>
589.7

> <PUBCHEM_OPENEYE_CAN_SMILES>
CC1=C(C=C(C=C1)NC(=O)C2=CC=C(C=C2)CN3CCN(CC3)C)NC4=NC=CC(=N4)C5=CN=CC=C5.CS(=O)(=O)O

> <PUBCHEM_OPENEYE_ISO_SMILES>
CC1=C(C=C(C=C1)NC(=O)C2=CC=C(C=C2)CN3CCN(CC3)C)NC4=NC=CC(=N4)C5=CN=CC=C5.CS(=O)(=O)O

> <PUBCHEM_CACTVS_TPSA>
149

> <PUBCHEM_MONOISOTOPIC_WEIGHT>
589.24712380

> <PUBCHEM_TOTAL_CHARGE>
0

> <PUBCHEM_HEAVY_ATOM_COUNT>
42

> <PUBCHEM_ATOM_DEF_STEREO_COUNT>
0

> <PUBCHEM_ATOM_UDEF_STEREO_COUNT>
0

> <PUBCHEM_BOND_DEF_STEREO_COUNT>
0

> <PUBCHEM_BOND_UDEF_STEREO_COUNT>
0

> <PUBCHEM_ISOTOPIC_ATOM_COUNT>
0

> <PUBCHEM_COMPONENT_COUNT>
2

> <PUBCHEM_CACTVS_TAUTO_COUNT>
-1

> <PUBCHEM_COORDINATE_TYPE>
1
5
255

> <PUBCHEM_BONDANNOTATIONS>
10  33  8
10  34  8
11  33  8
11  37  8
12  39  8
12  41  8
19  20  8
19  21  8
20  22  8
21  23  8
22  24  8
23  24  8
26  27  8
26  29  8
27  28  8
28  30  8
29  31  8
30  31  8
34  36  8
35  38  8
35  39  8
36  37  8
38  40  8
40  41  8

$$$$
78323835
  -OEChem-11282412102D

 43 45  0     1  0  0  0  0  0999 V2000
    3.0000    1.8006    0.0000 S   0  0  0  0  0  0  0  0  0  0  0  0
    2.0000    1.8006    0.0000 O   0  0  0  0  0  0  0  0  0  0  0  0
    4.0000    1.8006    0.0000 O   0  0  0  0  0  0  0  0  0  0  0  0
    5.9568   -0.9065    0.0000 N   0  0  3  0  0  0  0  0  0  0  0  0
    3.0000    0.8006    0.0000 N   0  0  0  0  0  0  0  0  0  0  0  0
    5.0908   -2.4065    0.0000 N   0  0  0  0  0  0  0  0  0  0  0  0
    7.7690   -3.7113    0.0000 N   0  0  0  0  0  0  0  0  0  0  0  0
    5.9568   -3.9065    0.0000 N   0  0  0  0  0  0  0  0  0  0  0  0
    5.0908   -0.4065    0.0000 C   0  0  0  0  0  0  0  0  0  0  0  0
    3.8660    0.3006    0.0000 C   0  0  0  0  0  0  0  0  0  0  0  0
    4.8320    0.5594    0.0000 C   0  0  0  0  0  0  0  0  0  0  0  0
    4.1248   -0.6653    0.0000 C   0  0  0  0  0  0  0  0  0  0  0  0
    5.9568   -1.9065    0.0000 C   0  0  0  0  0  0  0  0  0  0  0  0
    6.8228   -0.4065    0.0000 C   0  0  0  0  0  0  0  0  0  0  0  0
    3.0000    2.8006    0.0000 C   0  0  0  0  0  0  0  0  0  0  0  0
    6.8228   -2.4065    0.0000 C   0  0  0  0  0  0  0  0  0  0  0  0
    2.1340    3.3006    0.0000 C   0  0  0  0  0  0  0  0  0  0  0  0
    6.8228   -3.4065    0.0000 C   0  0  0  0  0  0  0  0  0  0  0  0
    7.7690   -2.1018    0.0000 C   0  0  0  0  0  0  0  0  0  0  0  0
    2.1340    4.3006    0.0000 C   0  0  0  0  0  0  0  0  0  0  0  0
    5.0908   -3.4065    0.0000 C   0  0  0  0  0  0  0  0  0  0  0  0
    8.3526   -2.9065    0.0000 C   0  0  0  0  0  0  0  0  0  0  0  0
    5.0098   -1.0212    0.0000 H   0  0  0  0  0  0  0  0  0  0  0  0
    3.3742   -0.0769    0.0000 H   0  0  0  0  0  0  0  0  0  0  0  0
    5.4308    0.7199    0.0000 H   0  0  0  0  0  0  0  0  0  0  0  0
    4.6715    1.1583    0.0000 H   0  0  0  0  0  0  0  0  0  0  0  0
    3.5260   -0.8258    0.0000 H   0  0  0  0  0  0  0  0  0  0  0  0
    4.2853   -1.2642    0.0000 H   0  0  0  0  0  0  0  0  0  0  0  0
    2.4631    0.4906    0.0000 H   0  0  0  0  0  0  0  0  0  0  0  0
    7.1328   -0.9435    0.0000 H   0  0  0  0  0  0  0  0  0  0  0  0
    7.3598   -0.0965    0.0000 H   0  0  0  0  0  0  0  0  0  0  0  0
    6.5128    0.1304    0.0000 H   0  0  0  0  0  0  0  0  0  0  0  0
    3.6106    2.6929    0.0000 H   0  0  0  0  0  0  0  0  0  0  0  0
    3.2120    3.3832    0.0000 H   0  0  0  0  0  0  0  0  0  0  0  0
    1.5234    3.4082    0.0000 H   0  0  0  0  0  0  0  0  0  0  0  0
    1.9219    2.7180    0.0000 H   0  0  0  0  0  0  0  0  0  0  0  0
    7.9616   -1.5125    0.0000 H   0  0  0  0  0  0  0  0  0  0  0  0
    2.7540    4.3006    0.0000 H   0  0  0  0  0  0  0  0  0  0  0  0
    2.1340    4.9206    0.0000 H   0  0  0  0  0  0  0  0  0  0  0  0
    1.5140    4.3006    0.0000 H   0  0  0  0  0  0  0  0  0  0  0  0
    4.5538   -3.7165    0.0000 H   0  0  0  0  0  0  0  0  0  0  0  0
    7.9616   -4.3006    0.0000 H   0  0  0  0  0  0  0  0  0  0  0  0
    8.9726   -2.9065    0.0000 H   0  0  0  0  0  0  0  0  0  0  0  0
  1  2  2  0  0  0  0
  1  3  2  0  0  0  0
  1  5  1  0  0  0  0
  1 15  1  0  0  0  0
  9  4  1  6  0  0  0
  4 13  1  0  0  0  0
  4 14  1  0  0  0  0
 10  5  1  1  0  0  0
  5 29  1  0  0  0  0
  6 13  2  0  0  0  0
  6 21  1  0  0  0  0
  7 18  1  0  0  0  0
  7 22  1  0  0  0  0
  7 42  1  0  0  0  0
  8 18  1  0  0  0  0
  8 21  2  0  0  0  0
  9 11  1  0  0  0  0
  9 12  1  0  0  0  0
  9 23  1  0  0  0  0
 10 11  1  0  0  0  0
 10 12  1  0  0  0  0
 10 24  1  0  0  0  0
 11 25  1  0  0  0  0
 11 26  1  0  0  0  0
 12 27  1  0  0  0  0
 12 28  1  0  0  0  0
 13 16  1  0  0  0  0
 14 30  1  0  0  0  0
 14 31  1  0  0  0  0
 14 32  1  0  0  0  0
 15 17  1  0  0  0  0
 15 33  1  0  0  0  0
 15 34  1  0  0  0  0
 16 18  2  0  0  0  0
 16 19  1  0  0  0  0
 17 20  1  0  0  0  0
 17 35  1  0  0  0  0
 17 36  1  0  0  0  0
 19 22  2  0  0  0  0
 19 37  1  0  0  0  0
 20 38  1  0  0  0  0
 20 39  1  0  0  0  0
 20 40  1  0  0  0  0
 21 41  1  0  0  0  0
 22 43  1  0  0  0  0
M  END
> <PUBCHEM_COMPOUND_CID>
78323835

> <PUBCHEM_COMPOUND_CANONICALIZED>
1

> <PUBCHEM_CACTVS_COMPLEXITY>
474

> <PUBCHEM_CACTVS_HBOND_ACCEPTOR>
6

> <PUBCHEM_CACTVS_HBOND_DONOR>
2

> <PUBCHEM_CACTVS_ROTATABLE_BOND>
6

> <PUBCHEM_CACTVS_SUBSKEYS>
AAADceBzsABAAAAAAAAAAAAAAABgAWAAAAAsAAAAAAAAAFgB+AAAHAQQQAAADCjFWwS/sN/JkAKgAjJnZHDCgCmxAqAJ2aA4ZJiIKMBAyMEEBAhIEALAQCAAAAAIAAAAAAAAAAAAAAAAAAAAAAAAAAAAAA==

> <PUBCHEM_IUPAC_OPENEYE_NAME>
N-[3-[methyl(7H-pyrrolo[2,3-d]pyrimidin-4-yl)amino]cyclobutyl]propane-1-sulfonamide

> <PUBCHEM_IUPAC_CAS_NAME>
N-[3-[methyl(7H-pyrrolo[2,3-d]pyrimidin-4-yl)amino]cyclobutyl]-1-propanesulfonamide

> <PUBCHEM_IUPAC_NAME_MARKUP>
<I>N</I>-[3-[methyl(7<I>H</I>-pyrrolo[2,3-d]pyrimidin-4-yl)amino]cyclobutyl]propane-1-sulfonamide

> <PUBCHEM_IUPAC_NAME>
N-[3-[methyl(7H-pyrrolo[2,3-d]pyrimidin-4-yl)amino]cyclobutyl]propane-1-sulfonamide

> <PUBCHEM_IUPAC_SYSTEMATIC_NAME>
N-[3-[methyl(7H-pyrrolo[2,3-d]pyrimidin-4-yl)amino]cyclobutyl]propane-1-sulfonamide

> <PUBCHEM_IUPAC_TRADITIONAL_NAME>
N-[3-[methyl(7H-pyrrolo[2,3-d]pyrimidin-4-yl)amino]cyclobutyl]propane-1-sulfonamide

> <PUBCHEM_IUPAC_INCHI>
InChI=1S/C14H21N5O2S/c1-3-6-22(20,21)18-10-7-11(8-10)19(2)14-12-4-5-15-13(12)16-9-17-14/h4-5,9-11,18H,3,6-8H2,1-2H3,(H,15,16,17)

> <PUBCHEM_IUPAC_INCHIKEY>
IUEWXNHSKRWHDY-UHFFFAOYSA-N

> <PUBCHEM_XLOGP3_AA>
1.7

> <PUBCHEM_EXACT_MASS>
323.14159610

> <PUBCHEM_MOLECULAR_FORMULA>
C14H21N5O2S

> <PUBCHEM_MOLECULAR_WEIGHT>
323.42

> <PUBCHEM_OPENEYE_CAN_SMILES>
CCCS(=O)(=O)NC1CC(C1)N(C)C2=NC=NC3=C2C=CN3

> <PUBCHEM_OPENEYE_ISO_SMILES>
CCCS(=O)(=O)NC1CC(C1)N(C)C2=NC=NC3=C2C=CN3

> <PUBCHEM_CACTVS_TPSA>
99.4

> <PUBCHEM_MONOISOTOPIC_WEIGHT>
323.14159610

> <PUBCHEM_TOTAL_CHARGE>
0

> <PUBCHEM_HEAVY_ATOM_COUNT>
22

> <PUBCHEM_ATOM_DEF_STEREO_COUNT>
0

> <PUBCHEM_ATOM_UDEF_STEREO_COUNT>
0

> <PUBCHEM_BOND_DEF_STEREO_COUNT>
0

> <PUBCHEM_BOND_UDEF_STEREO_COUNT>
0

> <PUBCHEM_ISOTOPIC_ATOM_COUNT>
0

> <PUBCHEM_COMPONENT_COUNT>
1

> <PUBCHEM_CACTVS_TAUTO_COUNT>
-1

> <PUBCHEM_COORDINATE_TYPE>
1
5
255

> <PUBCHEM_BONDANNOTATIONS>
13  16  8
16  18  8
16  19  8
19  22  8
9  4  6
10  5  5
6  13  8
6  21  8
7  18  8
7  22  8
8  18  8
8  21  8

$$$$
134821691
  -OEChem-11282412102D

 53 56  0     0  0  0  0  0  0999 V2000
    4.7320   -4.4909    0.0000 O   0  0  0  0  0  0  0  0  0  0  0  0
    5.5981    2.0091    0.0000 O   0  0  0  0  0  0  0  0  0  0  0  0
    7.3301    0.0091    0.0000 O   0  0  0  0  0  0  0  0  0  0  0  0
    3.8660   -2.9909    0.0000 N   0  0  0  0  0  0  0  0  0  0  0  0
    5.5981   -2.9909    0.0000 N   0  0  0  0  0  0  0  0  0  0  0  0
    5.5981    0.0091    0.0000 N   0  0  0  0  0  0  0  0  0  0  0  0
    6.4641   -2.4909    0.0000 N   0  0  0  0  0  0  0  0  0  0  0  0
    8.1962   -1.4909    0.0000 N   0  0  0  0  0  0  0  0  0  0  0  0
    3.3660    4.5479    0.0000 N   0  0  0  0  0  0  0  0  0  0  0  0
    3.0570    3.5969    0.0000 N   0  0  0  0  0  0  0  0  0  0  0  0
    4.6750    3.5969    0.0000 N   0  0  0  0  0  0  0  0  0  0  0  0
    3.0000   -4.4909    0.0000 C   0  0  0  0  0  0  0  0  0  0  0  0
    2.0000   -4.4909    0.0000 C   0  0  0  0  0  0  0  0  0  0  0  0
    2.5000   -5.3569    0.0000 C   0  0  0  0  0  0  0  0  0  0  0  0
    3.8660   -3.9909    0.0000 C   0  0  0  0  0  0  0  0  0  0  0  0
    4.7320   -2.4909    0.0000 C   0  0  0  0  0  0  0  0  0  0  0  0
    4.7320   -1.4909    0.0000 C   0  0  0  0  0  0  0  0  0  0  0  0
    5.5981   -0.9909    0.0000 C   0  0  0  0  0  0  0  0  0  0  0  0
    6.4641   -1.4909    0.0000 C   0  0  0  0  0  0  0  0  0  0  0  0
    4.7320    0.5091    0.0000 C   0  0  0  0  0  0  0  0  0  0  0  0
    4.7320    1.5091    0.0000 C   0  0  0  0  0  0  0  0  0  0  0  0
    3.8660    2.0091    0.0000 C   0  0  0  0  0  0  0  0  0  0  0  0
    3.8660    0.0091    0.0000 C   0  0  0  0  0  0  0  0  0  0  0  0
    7.3301   -0.9909    0.0000 C   0  0  0  0  0  0  0  0  0  0  0  0
    3.0000    1.5091    0.0000 C   0  0  0  0  0  0  0  0  0  0  0  0
    3.0000    0.5091    0.0000 C   0  0  0  0  0  0  0  0  0  0  0  0
    3.8660    3.0091    0.0000 C   0  0  0  0  0  0  0  0  0  0  0  0
    4.3660    4.5479    0.0000 C   0  0  0  0  0  0  0  0  0  0  0  0
    5.5981    3.0091    0.0000 C   0  0  0  0  0  0  0  0  0  0  0  0
    2.7782    5.3569    0.0000 C   0  0  0  0  0  0  0  0  0  0  0  0
    9.0622   -0.9909    0.0000 C   0  0  0  0  0  0  0  0  0  0  0  0
    2.8395   -3.8920    0.0000 H   0  0  0  0  0  0  0  0  0  0  0  0
    1.8923   -3.8803    0.0000 H   0  0  0  0  0  0  0  0  0  0  0  0
    1.4174   -4.7030    0.0000 H   0  0  0  0  0  0  0  0  0  0  0  0
    2.0250   -5.7555    0.0000 H   0  0  0  0  0  0  0  0  0  0  0  0
    2.9750   -5.7555    0.0000 H   0  0  0  0  0  0  0  0  0  0  0  0
    3.3291   -2.6809    0.0000 H   0  0  0  0  0  0  0  0  0  0  0  0
    4.1951   -1.1809    0.0000 H   0  0  0  0  0  0  0  0  0  0  0  0
    6.1350    0.3191    0.0000 H   0  0  0  0  0  0  0  0  0  0  0  0
    3.8660   -0.6109    0.0000 H   0  0  0  0  0  0  0  0  0  0  0  0
    2.4631    1.8191    0.0000 H   0  0  0  0  0  0  0  0  0  0  0  0
    2.4631    0.1991    0.0000 H   0  0  0  0  0  0  0  0  0  0  0  0
    8.1962   -2.1109    0.0000 H   0  0  0  0  0  0  0  0  0  0  0  0
    4.7304    5.0495    0.0000 H   0  0  0  0  0  0  0  0  0  0  0  0
    6.2181    3.0091    0.0000 H   0  0  0  0  0  0  0  0  0  0  0  0
    5.5981    3.6291    0.0000 H   0  0  0  0  0  0  0  0  0  0  0  0
    4.9781    3.0091    0.0000 H   0  0  0  0  0  0  0  0  0  0  0  0
    3.2798    5.7214    0.0000 H   0  0  0  0  0  0  0  0  0  0  0  0
    2.4138    5.8585    0.0000 H   0  0  0  0  0  0  0  0  0  0  0  0
    2.2766    4.9925    0.0000 H   0  0  0  0  0  0  0  0  0  0  0  0
    9.5991   -0.6809    0.0000 H   1  0  0  0  0  0  0  0  0  0  0  0
    9.3722   -1.5278    0.0000 H   1  0  0  0  0  0  0  0  0  0  0  0
    8.7522   -0.4540    0.0000 H   1  0  0  0  0  0  0  0  0  0  0  0
  1 15  2  0  0  0  0
  2 21  1  0  0  0  0
  2 29  1  0  0  0  0
  3 24  2  0  0  0  0
  4 15  1  0  0  0  0
  4 16  1  0  0  0  0
  4 37  1  0  0  0  0
  5  7  1  0  0  0  0
  5 16  2  0  0  0  0
  6 18  1  0  0  0  0
  6 20  1  0  0  0  0
  6 39  1  0  0  0  0
  7 19  2  0  0  0  0
  8 24  1  0  0  0  0
  8 31  1  0  0  0  0
  8 43  1  0  0  0  0
  9 10  1  0  0  0  0
  9 28  1  0  0  0  0
  9 30  1  0  0  0  0
 10 27  2  0  0  0  0
 11 27  1  0  0  0  0
 11 28  2  0  0  0  0
 12 13  1  0  0  0  0
 12 14  1  0  0  0  0
 12 15  1  0  0  0  0
 12 32  1  0  0  0  0
 13 14  1  0  0  0  0
 13 33  1  0  0  0  0
 13 34  1  0  0  0  0
 14 35  1  0  0  0  0
 14 36  1  0  0  0  0
 16 17  1  0  0  0  0
 17 18  2  0  0  0  0
 17 38  1  0  0  0  0
 18 19  1  0  0  0  0
 19 24  1  0  0  0  0
 20 21  1  0  0  0  0
 20 23  2  0  0  0  0
 21 22  2  0  0  0  0
 22 25  1  0  0  0  0
 22 27  1  0  0  0  0
 23 26  1  0  0  0  0
 23 40  1  0  0  0  0
 25 26  2  0  0  0  0
 25 41  1  0  0  0  0
 26 42  1  0  0  0  0
 28 44  1  0  0  0  0
 29 45  1  0  0  0  0
 29 46  1  0  0  0  0
 29 47  1  0  0  0  0
 30 48  1  0  0  0  0
 30 49  1  0  0  0  0
 30 50  1  0  0  0  0
 31 51  1  0  0  0  0
 31 52  1  0  0  0  0
 31 53  1  0  0  0  0
M  ISO  3  51   2  52   2  53   2
M  END
> <PUBCHEM_COMPOUND_CID>
134821691

> <PUBCHEM_COMPOUND_CANONICALIZED>
1

> <PUBCHEM_CACTVS_COMPLEXITY>
648

> <PUBCHEM_CACTVS_HBOND_ACCEPTOR>
8

> <PUBCHEM_CACTVS_HBOND_DONOR>
3

> <PUBCHEM_CACTVS_ROTATABLE_BOND>
7

> <PUBCHEM_CACTVS_SUBSKEYS>
AAADceB78AAAAAAAAAAAAAAAGAAAAWAAAAA8QAAAAAAAAAAB8AAAHgAYAAAADQyBnwY39pbIFACqAydzdACSjAs3sqAd2KG9fNiObvrE/duVtah+3xPY6UeYwSAOAAAAQAAIEAAAAACAABAgAAAAAAAAAA==

> <PUBCHEM_IUPAC_OPENEYE_NAME>
6-(cyclopropanecarbonylamino)-4-[2-methoxy-3-(1-methyl-1,2,4-triazol-3-yl)anilino]-N-(trideuteriomethyl)pyridazine-3-carboxamide

> <PUBCHEM_IUPAC_CAS_NAME>
6-[[cyclopropyl(oxo)methyl]amino]-4-[2-methoxy-3-(1-methyl-1,2,4-triazol-3-yl)anilino]-N-(trideuteriomethyl)-3-pyridazinecarboxamide

> <PUBCHEM_IUPAC_NAME_MARKUP>
6-(cyclopropanecarbonylamino)-4-[2-methoxy-3-(1-methyl-1,2,4-triazol-3-yl)anilino]-<I>N</I>-(trideuteriomethyl)pyridazine-3-carboxamide

> <PUBCHEM_IUPAC_NAME>
6-(cyclopropanecarbonylamino)-4-[2-methoxy-3-(1-methyl-1,2,4-triazol-3-yl)anilino]-N-(trideuteriomethyl)pyridazine-3-carboxamide

> <PUBCHEM_IUPAC_SYSTEMATIC_NAME>
6-(cyclopropylcarbonylamino)-4-[[2-methoxy-3-(1-methyl-1,2,4-triazol-3-yl)phenyl]amino]-N-(trideuteriomethyl)pyridazine-3-carboxamide

> <PUBCHEM_IUPAC_TRADITIONAL_NAME>
6-(cyclopropanecarbonylamino)-4-[2-methoxy-3-(1-methyl-1,2,4-triazol-3-yl)anilino]-N-(trideuteriomethyl)pyridazine-3-carboxamide

> <PUBCHEM_IUPAC_INCHI>
InChI=1S/C20H22N8O3/c1-21-20(30)16-14(9-15(25-26-16)24-19(29)11-7-8-11)23-13-6-4-5-12(17(13)31-3)18-22-10-28(2)27-18/h4-6,9-11H,7-8H2,1-3H3,(H,21,30)(H2,23,24,25,29)/i1D3

> <PUBCHEM_IUPAC_INCHIKEY>
BZZKEPGENYLQSC-FIBGUPNXSA-N

> <PUBCHEM_XLOGP3_AA>
1.2

> <PUBCHEM_EXACT_MASS>
425.20031683

> <PUBCHEM_MOLECULAR_FORMULA>
C20H22N8O3

> <PUBCHEM_MOLECULAR_WEIGHT>
425.5

> <PUBCHEM_OPENEYE_CAN_SMILES>
CNC(=O)C1=NN=C(C=C1NC2=CC=CC(=C2OC)C3=NN(C=N3)C)NC(=O)C4CC4

> <PUBCHEM_OPENEYE_ISO_SMILES>
[2H]C([2H])([2H])NC(=O)C1=NN=C(C=C1NC2=CC=CC(=C2OC)C3=NN(C=N3)C)NC(=O)C4CC4

> <PUBCHEM_CACTVS_TPSA>
136

> <PUBCHEM_MONOISOTOPIC_WEIGHT>
425.20031683

> <PUBCHEM_TOTAL_CHARGE>
0

> <PUBCHEM_HEAVY_ATOM_COUNT>
31

> <PUBCHEM_ATOM_DEF_STEREO_COUNT>
0

> <PUBCHEM_ATOM_UDEF_STEREO_COUNT>
0

> <PUBCHEM_BOND_DEF_STEREO_COUNT>
0

> <PUBCHEM_BOND_UDEF_STEREO_COUNT>
0

> <PUBCHEM_ISOTOPIC_ATOM_COUNT>
3

> <PUBCHEM_COMPONENT_COUNT>
1

> <PUBCHEM_CACTVS_TAUTO_COUNT>
-1

> <PUBCHEM_COORDINATE_TYPE>
1
5
255

> <PUBCHEM_BONDANNOTATIONS>
10  27  8
11  27  8
11  28  8
16  17  8
17  18  8
18  19  8
20  21  8
20  23  8
21  22  8
22  25  8
23  26  8
25  26  8
5  16  8
5  7  8
7  19  8
9  10  8
9  28  8

$$$$
135565884
  -OEChem-11282412102D

 64 68  0     1  0  0  0  0  0999 V2000
    3.7320   -3.7944    0.0000 O   0  0  0  0  0  0  0  0  0  0  0  0
    5.9674    3.6670    0.0000 O   0  0  0  0  0  0  0  0  0  0  0  0
    9.2619    1.7056    0.0000 O   0  0  0  0  0  0  0  0  0  0  0  0
    3.7320    1.2056    0.0000 N   0  0  0  0  0  0  0  0  0  0  0  0
    2.8660   -2.2944    0.0000 N   0  0  0  0  0  0  0  0  0  0  0  0
    2.8660    2.7056    0.0000 N   0  0  0  0  0  0  0  0  0  0  0  0
    4.6783    0.9008    0.0000 N   0  0  0  0  0  0  0  0  0  0  0  0
    4.3211    4.2051    0.0000 N   0  0  0  0  0  0  0  0  0  0  0  0
    2.8660   -0.2944    0.0000 C   0  0  0  0  0  0  0  0  0  0  0  0
    2.8660    0.7056    0.0000 C   0  0  2  0  0  0  0  0  0  0  0  0
    3.7320   -0.7944    0.0000 C   0  0  0  0  0  0  0  0  0  0  0  0
    2.0000   -0.7944    0.0000 C   0  0  0  0  0  0  0  0  0  0  0  0
    2.0000    1.2056    0.0000 C   0  0  0  0  0  0  0  0  0  0  0  0
    3.7320   -1.7944    0.0000 C   0  0  0  0  0  0  0  0  0  0  0  0
    2.0000   -1.7944    0.0000 C   0  0  0  0  0  0  0  0  0  0  0  0
    2.0000    2.2056    0.0000 C   0  0  0  0  0  0  0  0  0  0  0  0
    3.7320    2.2056    0.0000 C   0  0  0  0  0  0  0  0  0  0  0  0
    4.6783    2.5103    0.0000 C   0  0  0  0  0  0  0  0  0  0  0  0
    5.2619    1.7056    0.0000 C   0  0  0  0  0  0  0  0  0  0  0  0
    2.8660   -3.2944    0.0000 C   0  0  0  0  0  0  0  0  0  0  0  0
    6.2619    1.7056    0.0000 C   0  0  0  0  0  0  0  0  0  0  0  0
    4.9889    3.4608    0.0000 C   0  0  0  0  0  0  0  0  0  0  0  0
    2.0000   -3.7944    0.0000 C   0  0  0  0  0  0  0  0  0  0  0  0
    6.7619    2.5716    0.0000 C   0  0  0  0  0  0  0  0  0  0  0  0
    6.7619    0.8395    0.0000 C   0  0  0  0  0  0  0  0  0  0  0  0
    2.0000   -4.7944    0.0000 C   0  0  0  0  0  0  0  0  0  0  0  0
    7.7619    2.5716    0.0000 C   0  0  0  0  0  0  0  0  0  0  0  0
    7.7619    0.8395    0.0000 C   0  0  0  0  0  0  0  0  0  0  0  0
    8.2619    1.7056    0.0000 C   0  0  0  0  0  0  0  0  0  0  0  0
    9.7619    0.8395    0.0000 C   0  0  0  0  0  0  0  0  0  0  0  0
    9.2619   -0.0265    0.0000 C   0  0  0  0  0  0  0  0  0  0  0  0
   10.7619    0.8395    0.0000 C   0  0  0  0  0  0  0  0  0  0  0  0
    9.7619   -0.8925    0.0000 C   0  0  0  0  0  0  0  0  0  0  0  0
   11.2619   -0.0265    0.0000 C   0  0  0  0  0  0  0  0  0  0  0  0
   10.7619   -0.8925    0.0000 C   0  0  0  0  0  0  0  0  0  0  0  0
    3.4030    0.0156    0.0000 H   0  0  0  0  0  0  0  0  0  0  0  0
    2.1299    0.2806    0.0000 H   0  0  0  0  0  0  0  0  0  0  0  0
    4.3426   -0.9021    0.0000 H   0  0  0  0  0  0  0  0  0  0  0  0
    3.9441   -0.2118    0.0000 H   0  0  0  0  0  0  0  0  0  0  0  0
    1.7880   -0.2118    0.0000 H   0  0  0  0  0  0  0  0  0  0  0  0
    1.3894   -0.9021    0.0000 H   0  0  0  0  0  0  0  0  0  0  0  0
    1.3894    1.3132    0.0000 H   0  0  0  0  0  0  0  0  0  0  0  0
    1.7880    0.6230    0.0000 H   0  0  0  0  0  0  0  0  0  0  0  0
    3.9441   -2.3770    0.0000 H   0  0  0  0  0  0  0  0  0  0  0  0
    4.3426   -1.6868    0.0000 H   0  0  0  0  0  0  0  0  0  0  0  0
    1.3894   -1.6868    0.0000 H   0  0  0  0  0  0  0  0  0  0  0  0
    1.7880   -2.3770    0.0000 H   0  0  0  0  0  0  0  0  0  0  0  0
    1.7880    2.7882    0.0000 H   0  0  0  0  0  0  0  0  0  0  0  0
    1.3894    2.0979    0.0000 H   0  0  0  0  0  0  0  0  0  0  0  0
    2.8660    3.3256    0.0000 H   0  0  0  0  0  0  0  0  0  0  0  0
    1.4631   -3.4844    0.0000 H   0  0  0  0  0  0  0  0  0  0  0  0
    6.4519    3.1085    0.0000 H   0  0  0  0  0  0  0  0  0  0  0  0
    6.4519    0.3026    0.0000 H   0  0  0  0  0  0  0  0  0  0  0  0
    4.5137    4.7944    0.0000 H   0  0  0  0  0  0  0  0  0  0  0  0
    3.7144    4.0773    0.0000 H   0  0  0  0  0  0  0  0  0  0  0  0
    1.4631   -5.1044    0.0000 H   0  0  0  0  0  0  0  0  0  0  0  0
    2.5369   -5.1044    0.0000 H   0  0  0  0  0  0  0  0  0  0  0  0
    8.0719    3.1085    0.0000 H   0  0  0  0  0  0  0  0  0  0  0  0
    8.0719    0.3026    0.0000 H   0  0  0  0  0  0  0  0  0  0  0  0
    8.6419   -0.0265    0.0000 H   0  0  0  0  0  0  0  0  0  0  0  0
   11.0719    1.3765    0.0000 H   0  0  0  0  0  0  0  0  0  0  0  0
    9.4519   -1.4295    0.0000 H   0  0  0  0  0  0  0  0  0  0  0  0
   11.8819   -0.0265    0.0000 H   0  0  0  0  0  0  0  0  0  0  0  0
   11.0719   -1.4295    0.0000 H   0  0  0  0  0  0  0  0  0  0  0  0
  1 20  2  0  0  0  0
  2 22  2  0  0  0  0
  3 29  1  0  0  0  0
  3 30  1  0  0  0  0
  4  7  1  0  0  0  0
  4 10  1  0  0  0  0
  4 17  1  0  0  0  0
  5 14  1  0  0  0  0
  5 15  1  0  0  0  0
  5 20  1  0  0  0  0
  6 16  1  0  0  0  0
  6 17  1  0  0  0  0
  6 50  1  0  0  0  0
  7 19  2  0  0  0  0
  8 22  1  0  0  0  0
  8 54  1  0  0  0  0
  8 55  1  0  0  0  0
  9 10  1  0  0  0  0
  9 11  1  0  0  0  0
  9 12  1  0  0  0  0
  9 36  1  0  0  0  0
 10 13  1  0  0  0  0
 10 37  1  1  0  0  0
 11 14  1  0  0  0  0
 11 38  1  0  0  0  0
 11 39  1  0  0  0  0
 12 15  1  0  0  0  0
 12 40  1  0  0  0  0
 12 41  1  0  0  0  0
 13 16  1  0  0  0  0
 13 42  1  0  0  0  0
 13 43  1  0  0  0  0
 14 44  1  0  0  0  0
 14 45  1  0  0  0  0
 15 46  1  0  0  0  0
 15 47  1  0  0  0  0
 16 48  1  0  0  0  0
 16 49  1  0  0  0  0
 17 18  2  0  0  0  0
 18 19  1  0  0  0  0
 18 22  1  0  0  0  0
 19 21  1  0  0  0  0
 20 23  1  0  0  0  0
 21 24  2  0  0  0  0
 21 25  1  0  0  0  0
 23 26  2  0  0  0  0
 23 51  1  0  0  0  0
 24 27  1  0  0  0  0
 24 52  1  0  0  0  0
 25 28  2  0  0  0  0
 25 53  1  0  0  0  0
 26 56  1  0  0  0  0
 26 57  1  0  0  0  0
 27 29  2  0  0  0  0
 27 58  1  0  0  0  0
 28 29  1  0  0  0  0
 28 59  1  0  0  0  0
 30 31  2  0  0  0  0
 30 32  1  0  0  0  0
 31 33  1  0  0  0  0
 31 60  1  0  0  0  0
 32 34  2  0  0  0  0
 32 61  1  0  0  0  0
 33 35  2  0  0  0  0
 33 62  1  0  0  0  0
 34 35  1  0  0  0  0
 34 63  1  0  0  0  0
 35 64  1  0  0  0  0
M  END
> <PUBCHEM_COMPOUND_CID>
135565884

> <PUBCHEM_COMPOUND_CANONICALIZED>
1

> <PUBCHEM_CACTVS_COMPLEXITY>
756

> <PUBCHEM_CACTVS_HBOND_ACCEPTOR>
5

> <PUBCHEM_CACTVS_HBOND_DONOR>
2

> <PUBCHEM_CACTVS_ROTATABLE_BOND>
6

> <PUBCHEM_CACTVS_SUBSKEYS>
AAADceB7sAAAAAAAAAAAAAAAAAAAAWAAAAA8eIEAAAAAAFgB0AAAHgAYAAAADSzBngQxtpPIBACqAydydACSDAMloAAd2KEuTNiMJrrE+duGvaj83hPI6ceY2OGOIAAAAAAAAABAAAAAAAAAAAAAAAAAAA==

> <PUBCHEM_IUPAC_OPENEYE_NAME>
(7S)-2-(4-phenoxyphenyl)-7-(1-prop-2-enoyl-4-piperidyl)-4,5,6,7-tetrahydropyrazolo[1,5-a]pyrimidine-3-carboxamide

> <PUBCHEM_IUPAC_CAS_NAME>
(7S)-7-[1-(1-oxoprop-2-enyl)-4-piperidinyl]-2-(4-phenoxyphenyl)-4,5,6,7-tetrahydropyrazolo[1,5-a]pyrimidine-3-carboxamide

> <PUBCHEM_IUPAC_NAME_MARKUP>
(7<I>S</I>)-2-(4-phenoxyphenyl)-7-(1-prop-2-enoylpiperidin-4-yl)-4,5,6,7-tetrahydropyrazolo[1,5-a]pyrimidine-3-carboxamide

> <PUBCHEM_IUPAC_NAME>
(7S)-2-(4-phenoxyphenyl)-7-(1-prop-2-enoylpiperidin-4-yl)-4,5,6,7-tetrahydropyrazolo[1,5-a]pyrimidine-3-carboxamide

> <PUBCHEM_IUPAC_SYSTEMATIC_NAME>
(7S)-2-(4-phenoxyphenyl)-7-(1-prop-2-enoylpiperidin-4-yl)-4,5,6,7-tetrahydropyrazolo[1,5-a]pyrimidine-3-carboxamide

> <PUBCHEM_IUPAC_TRADITIONAL_NAME>
(7S)-7-(1-acryloyl-4-piperidyl)-2-(4-phenoxyphenyl)-4,5,6,7-tetrahydropyrazolo[1,5-a]pyrimidine-3-carboxamide

> <PUBCHEM_IUPAC_INCHI>
InChI=1S/C27H29N5O3/c1-2-23(33)31-16-13-18(14-17-31)22-12-15-29-27-24(26(28)34)25(30-32(22)27)19-8-10-21(11-9-19)35-20-6-4-3-5-7-20/h2-11,18,22,29H,1,12-17H2,(H2,28,34)/t22-/m0/s1

> <PUBCHEM_IUPAC_INCHIKEY>
RNOAOAWBMHREKO-QFIPXVFZSA-N

> <PUBCHEM_XLOGP3_AA>
3.5

> <PUBCHEM_EXACT_MASS>
471.22703980

> <PUBCHEM_MOLECULAR_FORMULA>
C27H29N5O3

> <PUBCHEM_MOLECULAR_WEIGHT>
471.5

> <PUBCHEM_OPENEYE_CAN_SMILES>
C=CC(=O)N1CCC(CC1)C2CCNC3=C(C(=NN23)C4=CC=C(C=C4)OC5=CC=CC=C5)C(=O)N

> <PUBCHEM_OPENEYE_ISO_SMILES>
C=CC(=O)N1CCC(CC1)[C@@H]2CCNC3=C(C(=NN23)C4=CC=C(C=C4)OC5=CC=CC=C5)C(=O)N

> <PUBCHEM_CACTVS_TPSA>
103

> <PUBCHEM_MONOISOTOPIC_WEIGHT>
471.22703980

> <PUBCHEM_TOTAL_CHARGE>
0

> <PUBCHEM_HEAVY_ATOM_COUNT>
35

> <PUBCHEM_ATOM_DEF_STEREO_COUNT>
1

> <PUBCHEM_ATOM_UDEF_STEREO_COUNT>
0

> <PUBCHEM_BOND_DEF_STEREO_COUNT>
0

> <PUBCHEM_BOND_UDEF_STEREO_COUNT>
0

> <PUBCHEM_ISOTOPIC_ATOM_COUNT>
0

> <PUBCHEM_COMPONENT_COUNT>
1

> <PUBCHEM_CACTVS_TAUTO_COUNT>
-1

> <PUBCHEM_COORDINATE_TYPE>
1
5
255

> <PUBCHEM_BONDANNOTATIONS>
10  37  5
17  18  8
18  19  8
21  24  8
21  25  8
24  27  8
25  28  8
27  29  8
28  29  8
30  31  8
30  32  8
31  33  8
32  34  8
33  35  8
34  35  8
4  17  8
4  7  8
7  19  8

$$$$
46848036
  -OEChem-11282412102D

 70 74  0     0  0  0  0  0  0999 V2000
    6.1962    2.5000    0.0000 F   0  0  0  0  0  0  0  0  0  0  0  0
    7.1962    3.5000    0.0000 F   0  0  0  0  0  0  0  0  0  0  0  0
    8.1962    2.5000    0.0000 F   0  0  0  0  0  0  0  0  0  0  0  0
    9.7942    0.0000    0.0000 O   0  0  0  0  0  0  0  0  0  0  0  0
    4.5981    1.0000    0.0000 N   0  0  0  0  0  0  0  0  0  0  0  0
    2.8660    0.0000    0.0000 N   0  0  0  0  0  0  0  0  0  0  0  0
    8.9282   -1.5000    0.0000 N   0  0  0  0  0  0  0  0  0  0  0  0
   10.6603   -3.5000    0.0000 N   0  0  0  0  0  0  0  0  0  0  0  0
   12.3923   -1.5000    0.0000 N   0  0  0  0  0  0  0  0  0  0  0  0
   14.1244   -1.5000    0.0000 N   0  0  0  0  0  0  0  0  0  0  0  0
   13.2583   -3.0000    0.0000 N   0  0  0  0  0  0  0  0  0  0  0  0
   17.5885   -1.5000    0.0000 N   0  0  0  0  0  0  0  0  0  0  0  0
    3.7320    1.5000    0.0000 C   0  0  0  0  0  0  0  0  0  0  0  0
    4.5981    0.0000    0.0000 C   0  0  0  0  0  0  0  0  0  0  0  0
    2.8660    1.0000    0.0000 C   0  0  0  0  0  0  0  0  0  0  0  0
    3.7320   -0.5000    0.0000 C   0  0  0  0  0  0  0  0  0  0  0  0
    5.4641    1.5000    0.0000 C   0  0  0  0  0  0  0  0  0  0  0  0
    6.3301    1.0000    0.0000 C   0  0  0  0  0  0  0  0  0  0  0  0
    2.0000   -0.5000    0.0000 C   0  0  0  0  0  0  0  0  0  0  0  0
    7.1962    1.5000    0.0000 C   0  0  0  0  0  0  0  0  0  0  0  0
    6.3301    0.0000    0.0000 C   0  0  0  0  0  0  0  0  0  0  0  0
    8.0622    1.0000    0.0000 C   0  0  0  0  0  0  0  0  0  0  0  0
    7.1962   -0.5000    0.0000 C   0  0  0  0  0  0  0  0  0  0  0  0
    8.0622    0.0000    0.0000 C   0  0  0  0  0  0  0  0  0  0  0  0
    7.1962    2.5000    0.0000 C   0  0  0  0  0  0  0  0  0  0  0  0
    8.9282   -0.5000    0.0000 C   0  0  0  0  0  0  0  0  0  0  0  0
    9.7942   -2.0000    0.0000 C   0  0  0  0  0  0  0  0  0  0  0  0
   10.6603   -1.5000    0.0000 C   0  0  0  0  0  0  0  0  0  0  0  0
   11.5263   -2.0000    0.0000 C   0  0  0  0  0  0  0  0  0  0  0  0
    9.7942   -3.0000    0.0000 C   0  0  0  0  0  0  0  0  0  0  0  0
   11.5263   -3.0000    0.0000 C   0  0  0  0  0  0  0  0  0  0  0  0
   12.3923   -3.5000    0.0000 C   0  0  0  0  0  0  0  0  0  0  0  0
   13.2583   -2.0000    0.0000 C   0  0  0  0  0  0  0  0  0  0  0  0
   14.9904   -2.0000    0.0000 C   0  0  0  0  0  0  0  0  0  0  0  0
   15.8564   -1.5000    0.0000 C   0  0  0  0  0  0  0  0  0  0  0  0
   14.9904   -3.0000    0.0000 C   0  0  0  0  0  0  0  0  0  0  0  0
   14.1244   -3.5000    0.0000 C   0  0  0  0  0  0  0  0  0  0  0  0
   15.8564   -0.5000    0.0000 C   0  0  0  0  0  0  0  0  0  0  0  0
   16.7224   -2.0000    0.0000 C   0  0  0  0  0  0  0  0  0  0  0  0
   16.7224   -0.0000    0.0000 C   0  0  0  0  0  0  0  0  0  0  0  0
   17.5885   -0.5000    0.0000 C   0  0  0  0  0  0  0  0  0  0  0  0
    4.1306    1.9750    0.0000 H   0  0  0  0  0  0  0  0  0  0  0  0
    3.3335    1.9750    0.0000 H   0  0  0  0  0  0  0  0  0  0  0  0
    4.8101   -0.5826    0.0000 H   0  0  0  0  0  0  0  0  0  0  0  0
    5.2087    0.1077    0.0000 H   0  0  0  0  0  0  0  0  0  0  0  0
    2.6540    1.5826    0.0000 H   0  0  0  0  0  0  0  0  0  0  0  0
    2.2554    0.8923    0.0000 H   0  0  0  0  0  0  0  0  0  0  0  0
    3.3335   -0.9749    0.0000 H   0  0  0  0  0  0  0  0  0  0  0  0
    4.1306   -0.9749    0.0000 H   0  0  0  0  0  0  0  0  0  0  0  0
    5.8626    1.9750    0.0000 H   0  0  0  0  0  0  0  0  0  0  0  0
    5.0656    1.9750    0.0000 H   0  0  0  0  0  0  0  0  0  0  0  0
    1.6900    0.0369    0.0000 H   0  0  0  0  0  0  0  0  0  0  0  0
    1.4631   -0.8100    0.0000 H   0  0  0  0  0  0  0  0  0  0  0  0
    2.3100   -1.0369    0.0000 H   0  0  0  0  0  0  0  0  0  0  0  0
    5.7932   -0.3100    0.0000 H   0  0  0  0  0  0  0  0  0  0  0  0
    8.5991    1.3100    0.0000 H   0  0  0  0  0  0  0  0  0  0  0  0
    7.1962   -1.1200    0.0000 H   0  0  0  0  0  0  0  0  0  0  0  0
    8.3913   -1.8100    0.0000 H   0  0  0  0  0  0  0  0  0  0  0  0
   10.6603   -0.8800    0.0000 H   0  0  0  0  0  0  0  0  0  0  0  0
    9.2573   -3.3100    0.0000 H   0  0  0  0  0  0  0  0  0  0  0  0
   12.3923   -0.8800    0.0000 H   0  0  0  0  0  0  0  0  0  0  0  0
   12.0823   -4.0369    0.0000 H   0  0  0  0  0  0  0  0  0  0  0  0
   12.9292   -3.8100    0.0000 H   0  0  0  0  0  0  0  0  0  0  0  0
   12.7023   -2.9631    0.0000 H   0  0  0  0  0  0  0  0  0  0  0  0
   15.5273   -3.3100    0.0000 H   0  0  0  0  0  0  0  0  0  0  0  0
   14.1244   -4.1200    0.0000 H   0  0  0  0  0  0  0  0  0  0  0  0
   15.3195   -0.1900    0.0000 H   0  0  0  0  0  0  0  0  0  0  0  0
   16.7224   -2.6200    0.0000 H   0  0  0  0  0  0  0  0  0  0  0  0
   16.7224    0.6200    0.0000 H   0  0  0  0  0  0  0  0  0  0  0  0
   18.1254   -0.1900    0.0000 H   0  0  0  0  0  0  0  0  0  0  0  0
  1 25  1  0  0  0  0
  2 25  1  0  0  0  0
  3 25  1  0  0  0  0
  4 26  2  0  0  0  0
  5 13  1  0  0  0  0
  5 14  1  0  0  0  0
  5 17  1  0  0  0  0
  6 15  1  0  0  0  0
  6 16  1  0  0  0  0
  6 19  1  0  0  0  0
  7 26  1  0  0  0  0
  7 27  1  0  0  0  0
  7 58  1  0  0  0  0
  8 30  2  0  0  0  0
  8 31  1  0  0  0  0
  9 29  1  0  0  0  0
  9 33  1  0  0  0  0
  9 61  1  0  0  0  0
 10 33  1  0  0  0  0
 10 34  2  0  0  0  0
 11 33  2  0  0  0  0
 11 37  1  0  0  0  0
 12 39  1  0  0  0  0
 12 41  2  0  0  0  0
 13 15  1  0  0  0  0
 13 42  1  0  0  0  0
 13 43  1  0  0  0  0
 14 16  1  0  0  0  0
 14 44  1  0  0  0  0
 14 45  1  0  0  0  0
 15 46  1  0  0  0  0
 15 47  1  0  0  0  0
 16 48  1  0  0  0  0
 16 49  1  0  0  0  0
 17 18  1  0  0  0  0
 17 50  1  0  0  0  0
 17 51  1  0  0  0  0
 18 20  2  0  0  0  0
 18 21  1  0  0  0  0
 19 52  1  0  0  0  0
 19 53  1  0  0  0  0
 19 54  1  0  0  0  0
 20 22  1  0  0  0  0
 20 25  1  0  0  0  0
 21 23  2  0  0  0  0
 21 55  1  0  0  0  0
 22 24  2  0  0  0  0
 22 56  1  0  0  0  0
 23 24  1  0  0  0  0
 23 57  1  0  0  0  0
 24 26  1  0  0  0  0
 27 28  2  0  0  0  0
 27 30  1  0  0  0  0
 28 29  1  0  0  0  0
 28 59  1  0  0  0  0
 29 31  2  0  0  0  0
 30 60  1  0  0  0  0
 31 32  1  0  0  0  0
 32 62  1  0  0  0  0
 32 63  1  0  0  0  0
 32 64  1  0  0  0  0
 34 35  1  0  0  0  0
 34 36  1  0  0  0  0
 35 38  1  0  0  0  0
 35 39  2  0  0  0  0
 36 37  2  0  0  0  0
 36 65  1  0  0  0  0
 37 66  1  0  0  0  0
 38 40  2  0  0  0  0
 38 67  1  0  0  0  0
 39 68  1  0  0  0  0
 40 41  1  0  0  0  0
 40 69  1  0  0  0  0
 41 70  1  0  0  0  0
M  END
> <PUBCHEM_COMPOUND_CID>
46848036

> <PUBCHEM_COMPOUND_CANONICALIZED>
1

> <PUBCHEM_CACTVS_COMPLEXITY>
841

> <PUBCHEM_CACTVS_HBOND_ACCEPTOR>
11

> <PUBCHEM_CACTVS_HBOND_DONOR>
2

> <PUBCHEM_CACTVS_ROTATABLE_BOND>
7

> <PUBCHEM_CACTVS_SUBSKEYS>
AAADceB74YAAAAAAAAAAAAAAAAAAAAAAAAA8WLFiAAAAAAAB/AAAHwAQAAAADAjBnhQ/0JfIEACoAzV3dACCgCk1EqAJ2CE4dNiIaPLA3dGUJQholALIyacYiMCOwAACAAAQAACAAAQAACAAAAAAAAAAAA==

> <PUBCHEM_IUPAC_OPENEYE_NAME>
4-[(4-methylpiperazin-1-yl)methyl]-N-[6-methyl-5-[[4-(3-pyridyl)pyrimidin-2-yl]amino]-3-pyridyl]-3-(trifluoromethyl)benzamide

> <PUBCHEM_IUPAC_CAS_NAME>
4-[(4-methyl-1-piperazinyl)methyl]-N-[6-methyl-5-[[4-(3-pyridinyl)-2-pyrimidinyl]amino]-3-pyridinyl]-3-(trifluoromethyl)benzamide

> <PUBCHEM_IUPAC_NAME_MARKUP>
4-[(4-methylpiperazin-1-yl)methyl]-<I>N</I>-[6-methyl-5-[(4-pyridin-3-ylpyrimidin-2-yl)amino]pyridin-3-yl]-3-(trifluoromethyl)benzamide

> <PUBCHEM_IUPAC_NAME>
4-[(4-methylpiperazin-1-yl)methyl]-N-[6-methyl-5-[(4-pyridin-3-ylpyrimidin-2-yl)amino]pyridin-3-yl]-3-(trifluoromethyl)benzamide

> <PUBCHEM_IUPAC_SYSTEMATIC_NAME>
4-[(4-methylpiperazin-1-yl)methyl]-N-[6-methyl-5-[(4-pyridin-3-ylpyrimidin-2-yl)amino]pyridin-3-yl]-3-(trifluoromethyl)benzamide

> <PUBCHEM_IUPAC_TRADITIONAL_NAME>
4-[(4-methylpiperazino)methyl]-N-[6-methyl-5-[[4-(3-pyridyl)pyrimidin-2-yl]amino]-3-pyridyl]-3-(trifluoromethyl)benzamide

> <PUBCHEM_IUPAC_INCHI>
InChI=1S/C29H29F3N8O/c1-19-26(38-28-34-9-7-25(37-28)21-4-3-8-33-16-21)15-23(17-35-19)36-27(41)20-5-6-22(24(14-20)29(30,31)32)18-40-12-10-39(2)11-13-40/h3-9,14-17H,10-13,18H2,1-2H3,(H,36,41)(H,34,37,38)

> <PUBCHEM_IUPAC_INCHIKEY>
BJCJYEYYYGBROF-UHFFFAOYSA-N

> <PUBCHEM_XLOGP3_AA>
3.4

> <PUBCHEM_EXACT_MASS>
562.24164206

> <PUBCHEM_MOLECULAR_FORMULA>
C29H29F3N8O

> <PUBCHEM_MOLECULAR_WEIGHT>
562.6

> <PUBCHEM_OPENEYE_CAN_SMILES>
CC1=C(C=C(C=N1)NC(=O)C2=CC(=C(C=C2)CN3CCN(CC3)C)C(F)(F)F)NC4=NC=CC(=N4)C5=CN=CC=C5

> <PUBCHEM_OPENEYE_ISO_SMILES>
CC1=C(C=C(C=N1)NC(=O)C2=CC(=C(C=C2)CN3CCN(CC3)C)C(F)(F)F)NC4=NC=CC(=N4)C5=CN=CC=C5

> <PUBCHEM_CACTVS_TPSA>
99.2

> <PUBCHEM_MONOISOTOPIC_WEIGHT>
562.24164206

> <PUBCHEM_TOTAL_CHARGE>
0

> <PUBCHEM_HEAVY_ATOM_COUNT>
41

> <PUBCHEM_ATOM_DEF_STEREO_COUNT>
0

> <PUBCHEM_ATOM_UDEF_STEREO_COUNT>
0

> <PUBCHEM_BOND_DEF_STEREO_COUNT>
0

> <PUBCHEM_BOND_UDEF_STEREO_COUNT>
0

> <PUBCHEM_ISOTOPIC_ATOM_COUNT>
0

> <PUBCHEM_COMPONENT_COUNT>
1

> <PUBCHEM_CACTVS_TAUTO_COUNT>
-1

> <PUBCHEM_COORDINATE_TYPE>
1
5
255

> <PUBCHEM_BONDANNOTATIONS>
10  33  8
10  34  8
11  33  8
11  37  8
12  39  8
12  41  8
18  20  8
18  21  8
20  22  8
21  23  8
22  24  8
23  24  8
27  28  8
27  30  8
28  29  8
29  31  8
34  36  8
35  38  8
35  39  8
36  37  8
38  40  8
40  41  8
8  30  8
8  31  8

$$$$
134828257
  -OEChem-11282412102D

 81 83  0     1  0  0  0  0  0999 V2000
   14.6947    6.7074    0.0000 S   0  0  0  0  0  0  0  0  0  0  0  0
    1.8330    7.2832    0.0000 F   0  0  0  0  0  0  0  0  0  0  0  0
    2.6053    8.4680    0.0000 F   0  0  0  0  0  0  0  0  0  0  0  0
    3.0177    6.5110    0.0000 F   0  0  0  0  0  0  0  0  0  0  0  0
    4.4579    6.9514    0.0000 O   0  0  0  0  0  0  0  0  0  0  0  0
    8.7291    6.0814    0.0000 O   0  0  0  0  0  0  0  0  0  0  0  0
   15.5607    7.2074    0.0000 O   0  0  0  0  0  0  0  0  0  0  0  0
   14.1947    7.5734    0.0000 O   0  0  0  0  0  0  0  0  0  0  0  0
   15.1947    5.8414    0.0000 O   0  0  0  0  0  0  0  0  0  0  0  0
    7.0362    9.2649    0.0000 N   0  0  3  0  0  0  0  0  0  0  0  0
    3.2152    1.5398    0.0000 N   0  0  0  0  0  0  0  0  0  0  0  0
    6.0112   11.7040    0.0000 N   0  0  0  0  0  0  0  0  0  0  0  0
    5.7470    8.1081    0.0000 N   0  0  0  0  0  0  0  0  0  0  0  0
    5.7935    5.4628    0.0000 N   0  0  0  0  0  0  0  0  0  0  0  0
    4.5044    4.3060    0.0000 N   0  0  0  0  0  0  0  0  0  0  0  0
    8.3719    7.7763    0.0000 N   0  0  0  0  0  0  0  0  0  0  0  0
    4.1472    6.0009    0.0000 N   0  0  0  0  0  0  0  0  0  0  0  0
    6.3684   10.0092    0.0000 C   0  0  0  0  0  0  0  0  0  0  0  0
    2.2690    2.8446    0.0000 C   0  0  0  0  0  0  0  0  0  0  0  0
    2.2690    1.8446    0.0000 C   0  0  0  0  0  0  0  0  0  0  0  0
    3.2152    3.1493    0.0000 C   0  0  0  0  0  0  0  0  0  0  0  0
    6.6790   10.9597    0.0000 C   0  0  0  0  0  0  0  0  0  0  0  0
    3.7988    2.3446    0.0000 C   0  0  0  0  0  0  0  0  0  0  0  0
    6.7255    8.3143    0.0000 C   0  0  0  0  0  0  0  0  0  0  0  0
    3.5259    4.0998    0.0000 C   0  0  0  0  0  0  0  0  0  0  0  0
    7.3934    7.5700    0.0000 C   0  0  0  0  0  0  0  0  0  0  0  0
    1.4030    3.3446    0.0000 C   0  0  0  0  0  0  0  0  0  0  0  0
    1.4030    1.3446    0.0000 C   0  0  0  0  0  0  0  0  0  0  0  0
    8.0147    9.4711    0.0000 C   0  0  0  0  0  0  0  0  0  0  0  0
    6.1042    6.4133    0.0000 C   0  0  0  0  0  0  0  0  0  0  0  0
    3.5259    0.5893    0.0000 C   0  0  0  0  0  0  0  0  0  0  0  0
    7.0827    6.6195    0.0000 C   0  0  0  0  0  0  0  0  0  0  0  0
    5.4364    7.1576    0.0000 C   0  0  0  0  0  0  0  0  0  0  0  0
    0.5369    2.8446    0.0000 C   0  0  0  0  0  0  0  0  0  0  0  0
    0.5369    1.8446    0.0000 C   0  0  0  0  0  0  0  0  0  0  0  0
    6.3218   12.6545    0.0000 C   0  0  0  0  0  0  0  0  0  0  0  0
    5.0327   11.4978    0.0000 C   0  0  0  0  0  0  0  0  0  0  0  0
    4.8150    5.2566    0.0000 C   0  0  0  0  0  0  0  0  0  0  0  0
    2.8580    4.8441    0.0000 C   0  0  0  0  0  0  0  0  0  0  0  0
    3.1687    5.7946    0.0000 C   0  0  0  0  0  0  0  0  0  0  0  0
    3.7900    7.6957    0.0000 C   0  0  0  0  0  0  0  0  0  0  0  0
    9.0397    7.0320    0.0000 C   0  0  0  0  0  0  0  0  0  0  0  0
    2.8115    7.4895    0.0000 C   0  0  0  0  0  0  0  0  0  0  0  0
   10.0182    7.2382    0.0000 C   0  0  0  0  0  0  0  0  0  0  0  0
   10.6861    6.4939    0.0000 C   0  0  0  0  0  0  0  0  0  0  0  0
   13.8287    6.2074    0.0000 C   0  0  0  0  0  0  0  0  0  0  0  0
    5.8214   10.3012    0.0000 H   0  0  0  0  0  0  0  0  0  0  0  0
    5.9858    9.5213    0.0000 H   0  0  0  0  0  0  0  0  0  0  0  0
    7.2259   10.6677    0.0000 H   0  0  0  0  0  0  0  0  0  0  0  0
    7.0616   11.4476    0.0000 H   0  0  0  0  0  0  0  0  0  0  0  0
    4.4188    2.3446    0.0000 H   0  0  0  0  0  0  0  0  0  0  0  0
    1.4030    3.9646    0.0000 H   0  0  0  0  0  0  0  0  0  0  0  0
    1.4030    0.7246    0.0000 H   0  0  0  0  0  0  0  0  0  0  0  0
    8.1426    8.8644    0.0000 H   0  0  0  0  0  0  0  0  0  0  0  0
    8.6214    9.5989    0.0000 H   0  0  0  0  0  0  0  0  0  0  0  0
    7.8868   10.0778    0.0000 H   0  0  0  0  0  0  0  0  0  0  0  0
    2.9366    0.3967    0.0000 H   0  0  0  0  0  0  0  0  0  0  0  0
    3.7185    0.0000    0.0000 H   0  0  0  0  0  0  0  0  0  0  0  0
    4.1152    0.7819    0.0000 H   0  0  0  0  0  0  0  0  0  0  0  0
    7.4968    6.1581    0.0000 H   0  0  0  0  0  0  0  0  0  0  0  0
    0.0000    3.1546    0.0000 H   0  0  0  0  0  0  0  0  0  0  0  0
    0.0000    1.5346    0.0000 H   0  0  0  0  0  0  0  0  0  0  0  0
    6.2076    5.0013    0.0000 H   0  0  0  0  0  0  0  0  0  0  0  0
    6.9112   12.4619    0.0000 H   0  0  0  0  0  0  0  0  0  0  0  0
    6.5144   13.2438    0.0000 H   0  0  0  0  0  0  0  0  0  0  0  0
    5.7325   12.8471    0.0000 H   0  0  0  0  0  0  0  0  0  0  0  0
    4.9048   12.1044    0.0000 H   0  0  0  0  0  0  0  0  0  0  0  0
    4.4260   11.3699    0.0000 H   0  0  0  0  0  0  0  0  0  0  0  0
    5.1605   10.8911    0.0000 H   0  0  0  0  0  0  0  0  0  0  0  0
    2.2514    4.7163    0.0000 H   0  0  0  0  0  0  0  0  0  0  0  0
    8.5645    8.3656    0.0000 H   0  0  0  0  0  0  0  0  0  0  0  0
    2.7546    6.2561    0.0000 H   0  0  0  0  0  0  0  0  0  0  0  0
    4.3164    8.0233    0.0000 H   0  0  0  0  0  0  0  0  0  0  0  0
    3.5588    8.2709    0.0000 H   0  0  0  0  0  0  0  0  0  0  0  0
   10.2108    7.8275    0.0000 H   0  0  0  0  0  0  0  0  0  0  0  0
   10.4935    5.9046    0.0000 H   0  0  0  0  0  0  0  0  0  0  0  0
   11.2927    6.6217    0.0000 H   0  0  0  0  0  0  0  0  0  0  0  0
   13.5187    6.7443    0.0000 H   0  0  0  0  0  0  0  0  0  0  0  0
   13.2918    5.8974    0.0000 H   0  0  0  0  0  0  0  0  0  0  0  0
   14.1387    5.6704    0.0000 H   0  0  0  0  0  0  0  0  0  0  0  0
   16.0977    6.8974    0.0000 H   0  0  0  0  0  0  0  0  0  0  0  0
  1  7  1  0  0  0  0
  1  8  2  0  0  0  0
  1  9  2  0  0  0  0
  1 46  1  0  0  0  0
  2 43  1  0  0  0  0
  3 43  1  0  0  0  0
  4 43  1  0  0  0  0
  5 33  1  0  0  0  0
  5 41  1  0  0  0  0
  6 42  2  0  0  0  0
  7 81  1  0  0  0  0
 10 18  1  0  0  0  0
 10 24  1  0  0  0  0
 10 29  1  0  0  0  0
 11 20  1  0  0  0  0
 11 23  1  0  0  0  0
 11 31  1  0  0  0  0
 12 22  1  0  0  0  0
 12 36  1  0  0  0  0
 12 37  1  0  0  0  0
 13 24  2  0  0  0  0
 13 33  1  0  0  0  0
 14 30  1  0  0  0  0
 14 38  1  0  0  0  0
 14 63  1  0  0  0  0
 15 25  2  0  0  0  0
 15 38  1  0  0  0  0
 16 26  1  0  0  0  0
 16 42  1  0  0  0  0
 16 71  1  0  0  0  0
 17 38  2  0  0  0  0
 17 40  1  0  0  0  0
 18 22  1  0  0  0  0
 18 47  1  0  0  0  0
 18 48  1  0  0  0  0
 19 20  1  0  0  0  0
 19 21  1  0  0  0  0
 19 27  2  0  0  0  0
 20 28  2  0  0  0  0
 21 23  2  0  0  0  0
 21 25  1  0  0  0  0
 22 49  1  0  0  0  0
 22 50  1  0  0  0  0
 23 51  1  0  0  0  0
 24 26  1  0  0  0  0
 25 39  1  0  0  0  0
 26 32  2  0  0  0  0
 27 34  1  0  0  0  0
 27 52  1  0  0  0  0
 28 35  1  0  0  0  0
 28 53  1  0  0  0  0
 29 54  1  0  0  0  0
 29 55  1  0  0  0  0
 29 56  1  0  0  0  0
 30 32  1  0  0  0  0
 30 33  2  0  0  0  0
 31 57  1  0  0  0  0
 31 58  1  0  0  0  0
 31 59  1  0  0  0  0
 32 60  1  0  0  0  0
 34 35  2  0  0  0  0
 34 61  1  0  0  0  0
 35 62  1  0  0  0  0
 36 64  1  0  0  0  0
 36 65  1  0  0  0  0
 36 66  1  0  0  0  0
 37 67  1  0  0  0  0
 37 68  1  0  0  0  0
 37 69  1  0  0  0  0
 39 40  2  0  0  0  0
 39 70  1  0  0  0  0
 40 72  1  0  0  0  0
 41 43  1  0  0  0  0
 41 73  1  0  0  0  0
 41 74  1  0  0  0  0
 42 44  1  0  0  0  0
 44 45  2  0  0  0  0
 44 75  1  0  0  0  0
 45 76  1  0  0  0  0
 45 77  1  0  0  0  0
 46 78  1  0  0  0  0
 46 79  1  0  0  0  0
 46 80  1  0  0  0  0
M  END
> <PUBCHEM_COMPOUND_CID>
134828257

> <PUBCHEM_COMPOUND_CANONICALIZED>
1

> <PUBCHEM_CACTVS_COMPLEXITY>
957

> <PUBCHEM_CACTVS_HBOND_ACCEPTOR>
14

> <PUBCHEM_CACTVS_HBOND_DONOR>
3

> <PUBCHEM_CACTVS_ROTATABLE_BOND>
11

> <PUBCHEM_CACTVS_SUBSKEYS>
AAADcfB7+YBAAAAAAAAAAAAAAAAAAWAAAAA8WIAAAAAAAFgB/gAAHwQQCAAADAjhnha/9PfMFIKoAzd3dHCCiCkxMqAJ2CA9fNiObuLE+dufPCjs1BPY6KewkMIOgAAAAAACAAAAAAAAAAQAAAAAAAAAAA==

> <PUBCHEM_IUPAC_OPENEYE_NAME>
N-[2-[2-(dimethylamino)ethyl-methyl-amino]-5-[[4-(1-methylindol-3-yl)pyrimidin-2-yl]amino]-6-(2,2,2-trifluoroethoxy)-3-pyridyl]prop-2-enamide;methanesulfonic acid

> <PUBCHEM_IUPAC_CAS_NAME>
N-[2-[2-(dimethylamino)ethyl-methylamino]-5-[[4-(1-methyl-3-indolyl)-2-pyrimidinyl]amino]-6-(2,2,2-trifluoroethoxy)-3-pyridinyl]-2-propenamide;methanesulfonic acid

> <PUBCHEM_IUPAC_NAME_MARKUP>
<I>N</I>-[2-[2-(dimethylamino)ethyl-methylamino]-5-[[4-(1-methylindol-3-yl)pyrimidin-2-yl]amino]-6-(2,2,2-trifluoroethoxy)pyridin-3-yl]prop-2-enamide;methanesulfonic acid

> <PUBCHEM_IUPAC_NAME>
N-[2-[2-(dimethylamino)ethyl-methylamino]-5-[[4-(1-methylindol-3-yl)pyrimidin-2-yl]amino]-6-(2,2,2-trifluoroethoxy)pyridin-3-yl]prop-2-enamide;methanesulfonic acid

> <PUBCHEM_IUPAC_SYSTEMATIC_NAME>
N-[2-[2-(dimethylamino)ethyl-methyl-amino]-5-[[4-(1-methylindol-3-yl)pyrimidin-2-yl]amino]-6-[2,2,2-tris(fluoranyl)ethoxy]pyridin-3-yl]prop-2-enamide;methanesulfonic acid

> <PUBCHEM_IUPAC_TRADITIONAL_NAME>
N-[2-[2-(dimethylamino)ethyl-methyl-amino]-5-[[4-(1-methylindol-3-yl)pyrimidin-2-yl]amino]-6-(2,2,2-trifluoroethoxy)-3-pyridyl]acrylamide;mesylic acid

> <PUBCHEM_IUPAC_INCHI>
InChI=1S/C28H31F3N8O2.CH4O3S/c1-6-24(40)33-21-15-22(26(41-17-28(29,30)31)36-25(21)38(4)14-13-37(2)3)35-27-32-12-11-20(34-27)19-16-39(5)23-10-8-7-9-18(19)23;1-5(2,3)4/h6-12,15-16H,1,13-14,17H2,2-5H3,(H,33,40)(H,32,34,35);1H3,(H,2,3,4)

> <PUBCHEM_IUPAC_INCHIKEY>
WDPGHXINXNBHAS-UHFFFAOYSA-N

> <PUBCHEM_EXACT_MASS>
664.24032191

> <PUBCHEM_MOLECULAR_FORMULA>
C29H35F3N8O5S

> <PUBCHEM_MOLECULAR_WEIGHT>
664.7

> <PUBCHEM_OPENEYE_CAN_SMILES>
CN1C=C(C2=CC=CC=C21)C3=NC(=NC=C3)NC4=C(N=C(C(=C4)NC(=O)C=C)N(C)CCN(C)C)OCC(F)(F)F.CS(=O)(=O)O

> <PUBCHEM_OPENEYE_ISO_SMILES>
CN1C=C(C2=CC=CC=C21)C3=NC(=NC=C3)NC4=C(N=C(C(=C4)NC(=O)C=C)N(C)CCN(C)C)OCC(F)(F)F.CS(=O)(=O)O

> <PUBCHEM_CACTVS_TPSA>
163

> <PUBCHEM_MONOISOTOPIC_WEIGHT>
664.24032191

> <PUBCHEM_TOTAL_CHARGE>
0

> <PUBCHEM_HEAVY_ATOM_COUNT>
46

> <PUBCHEM_ATOM_DEF_STEREO_COUNT>
0

> <PUBCHEM_ATOM_UDEF_STEREO_COUNT>
0

> <PUBCHEM_BOND_DEF_STEREO_COUNT>
0

> <PUBCHEM_BOND_UDEF_STEREO_COUNT>
0

> <PUBCHEM_ISOTOPIC_ATOM_COUNT>
0

> <PUBCHEM_COMPONENT_COUNT>
2

> <PUBCHEM_CACTVS_TAUTO_COUNT>
-1

> <PUBCHEM_COORDINATE_TYPE>
1
5
255

> <PUBCHEM_BONDANNOTATIONS>
11  20  8
11  23  8
13  24  8
13  33  8
15  25  8
15  38  8
17  38  8
17  40  8
19  20  8
19  21  8
19  27  8
20  28  8
21  23  8
24  26  8
25  39  8
26  32  8
27  34  8
28  35  8
30  32  8
30  33  8
34  35  8
39  40  8

$$$$
78357807
  -OEChem-11282412102D

 79 81  0     1  0  0  0  0  0999 V2000
   14.6946    6.7074    0.0000 S   0  0  0  0  0  0  0  0  0  0  0  0
    4.4579    6.9514    0.0000 O   0  0  0  0  0  0  0  0  0  0  0  0
    8.7291    6.0814    0.0000 O   0  0  0  0  0  0  0  0  0  0  0  0
   15.5607    7.2074    0.0000 O   0  0  0  0  0  0  0  0  0  0  0  0
   14.1946    7.5734    0.0000 O   0  0  0  0  0  0  0  0  0  0  0  0
   15.1946    5.8414    0.0000 O   0  0  0  0  0  0  0  0  0  0  0  0
    7.0362    9.2649    0.0000 N   0  0  3  0  0  0  0  0  0  0  0  0
    3.2152    1.5398    0.0000 N   0  0  0  0  0  0  0  0  0  0  0  0
    6.0112   11.7040    0.0000 N   0  0  0  0  0  0  0  0  0  0  0  0
    5.7935    5.4628    0.0000 N   0  0  0  0  0  0  0  0  0  0  0  0
    8.3719    7.7763    0.0000 N   0  0  0  0  0  0  0  0  0  0  0  0
    4.5044    4.3060    0.0000 N   0  0  0  0  0  0  0  0  0  0  0  0
    4.1472    6.0009    0.0000 N   0  0  0  0  0  0  0  0  0  0  0  0
    6.3684   10.0092    0.0000 C   0  0  0  0  0  0  0  0  0  0  0  0
    6.7255    8.3143    0.0000 C   0  0  0  0  0  0  0  0  0  0  0  0
    6.6790   10.9597    0.0000 C   0  0  0  0  0  0  0  0  0  0  0  0
    2.2690    2.8446    0.0000 C   0  0  0  0  0  0  0  0  0  0  0  0
    2.2690    1.8446    0.0000 C   0  0  0  0  0  0  0  0  0  0  0  0
    3.2152    3.1493    0.0000 C   0  0  0  0  0  0  0  0  0  0  0  0
    7.3934    7.5700    0.0000 C   0  0  0  0  0  0  0  0  0  0  0  0
    3.7988    2.3446    0.0000 C   0  0  0  0  0  0  0  0  0  0  0  0
    5.7470    8.1081    0.0000 C   0  0  0  0  0  0  0  0  0  0  0  0
    6.1042    6.4133    0.0000 C   0  0  0  0  0  0  0  0  0  0  0  0
    8.0147    9.4711    0.0000 C   0  0  0  0  0  0  0  0  0  0  0  0
    5.4364    7.1576    0.0000 C   0  0  0  0  0  0  0  0  0  0  0  0
    7.0827    6.6195    0.0000 C   0  0  0  0  0  0  0  0  0  0  0  0
    3.5259    4.0998    0.0000 C   0  0  0  0  0  0  0  0  0  0  0  0
    1.4030    3.3446    0.0000 C   0  0  0  0  0  0  0  0  0  0  0  0
    1.4030    1.3446    0.0000 C   0  0  0  0  0  0  0  0  0  0  0  0
    3.5259    0.5893    0.0000 C   0  0  0  0  0  0  0  0  0  0  0  0
    6.3218   12.6545    0.0000 C   0  0  0  0  0  0  0  0  0  0  0  0
    5.0327   11.4978    0.0000 C   0  0  0  0  0  0  0  0  0  0  0  0
    4.8150    5.2566    0.0000 C   0  0  0  0  0  0  0  0  0  0  0  0
    0.5369    2.8446    0.0000 C   0  0  0  0  0  0  0  0  0  0  0  0
    0.5369    1.8446    0.0000 C   0  0  0  0  0  0  0  0  0  0  0  0
    2.8580    4.8441    0.0000 C   0  0  0  0  0  0  0  0  0  0  0  0
    3.1687    5.7946    0.0000 C   0  0  0  0  0  0  0  0  0  0  0  0
    9.0397    7.0320    0.0000 C   0  0  0  0  0  0  0  0  0  0  0  0
    3.7900    7.6957    0.0000 C   0  0  0  0  0  0  0  0  0  0  0  0
   10.0182    7.2382    0.0000 C   0  0  0  0  0  0  0  0  0  0  0  0
   10.6861    6.4939    0.0000 C   0  0  0  0  0  0  0  0  0  0  0  0
   13.8286    6.2074    0.0000 C   0  0  0  0  0  0  0  0  0  0  0  0
    5.8214   10.3012    0.0000 H   0  0  0  0  0  0  0  0  0  0  0  0
    5.9858    9.5213    0.0000 H   0  0  0  0  0  0  0  0  0  0  0  0
    7.2259   10.6677    0.0000 H   0  0  0  0  0  0  0  0  0  0  0  0
    7.0616   11.4476    0.0000 H   0  0  0  0  0  0  0  0  0  0  0  0
    5.3330    8.5696    0.0000 H   0  0  0  0  0  0  0  0  0  0  0  0
    4.4188    2.3446    0.0000 H   0  0  0  0  0  0  0  0  0  0  0  0
    8.1426    8.8644    0.0000 H   0  0  0  0  0  0  0  0  0  0  0  0
    8.6214    9.5989    0.0000 H   0  0  0  0  0  0  0  0  0  0  0  0
    7.8868   10.0778    0.0000 H   0  0  0  0  0  0  0  0  0  0  0  0
    7.4968    6.1581    0.0000 H   0  0  0  0  0  0  0  0  0  0  0  0
    1.4030    3.9646    0.0000 H   0  0  0  0  0  0  0  0  0  0  0  0
    1.4030    0.7246    0.0000 H   0  0  0  0  0  0  0  0  0  0  0  0
    2.9366    0.3967    0.0000 H   0  0  0  0  0  0  0  0  0  0  0  0
    3.7185    0.0000    0.0000 H   0  0  0  0  0  0  0  0  0  0  0  0
    4.1152    0.7819    0.0000 H   0  0  0  0  0  0  0  0  0  0  0  0
    6.2076    5.0013    0.0000 H   0  0  0  0  0  0  0  0  0  0  0  0
    8.5645    8.3656    0.0000 H   0  0  0  0  0  0  0  0  0  0  0  0
    6.9112   12.4619    0.0000 H   0  0  0  0  0  0  0  0  0  0  0  0
    6.5144   13.2438    0.0000 H   0  0  0  0  0  0  0  0  0  0  0  0
    5.7325   12.8471    0.0000 H   0  0  0  0  0  0  0  0  0  0  0  0
    4.9048   12.1044    0.0000 H   0  0  0  0  0  0  0  0  0  0  0  0
    4.4260   11.3699    0.0000 H   0  0  0  0  0  0  0  0  0  0  0  0
    5.1605   10.8911    0.0000 H   0  0  0  0  0  0  0  0  0  0  0  0
    0.0000    3.1546    0.0000 H   0  0  0  0  0  0  0  0  0  0  0  0
    0.0000    1.5346    0.0000 H   0  0  0  0  0  0  0  0  0  0  0  0
    2.2514    4.7163    0.0000 H   0  0  0  0  0  0  0  0  0  0  0  0
    2.7546    6.2561    0.0000 H   0  0  0  0  0  0  0  0  0  0  0  0
    4.2515    8.1098    0.0000 H   0  0  0  0  0  0  0  0  0  0  0  0
    3.3760    8.1572    0.0000 H   0  0  0  0  0  0  0  0  0  0  0  0
    3.3286    7.2816    0.0000 H   0  0  0  0  0  0  0  0  0  0  0  0
   10.2108    7.8275    0.0000 H   0  0  0  0  0  0  0  0  0  0  0  0
   10.4935    5.9046    0.0000 H   0  0  0  0  0  0  0  0  0  0  0  0
   11.2927    6.6217    0.0000 H   0  0  0  0  0  0  0  0  0  0  0  0
   13.5186    6.7443    0.0000 H   0  0  0  0  0  0  0  0  0  0  0  0
   13.2917    5.8974    0.0000 H   0  0  0  0  0  0  0  0  0  0  0  0
   14.1386    5.6704    0.0000 H   0  0  0  0  0  0  0  0  0  0  0  0
   16.0976    6.8974    0.0000 H   0  0  0  0  0  0  0  0  0  0  0  0
  1  4  1  0  0  0  0
  1  5  2  0  0  0  0
  1  6  2  0  0  0  0
  1 42  1  0  0  0  0
  2 25  1  0  0  0  0
  2 39  1  0  0  0  0
  3 38  2  0  0  0  0
  4 79  1  0  0  0  0
  7 14  1  0  0  0  0
  7 15  1  0  0  0  0
  7 24  1  0  0  0  0
  8 18  1  0  0  0  0
  8 21  1  0  0  0  0
  8 30  1  0  0  0  0
  9 16  1  0  0  0  0
  9 31  1  0  0  0  0
  9 32  1  0  0  0  0
 10 23  1  0  0  0  0
 10 33  1  0  0  0  0
 10 58  1  0  0  0  0
 11 20  1  0  0  0  0
 11 38  1  0  0  0  0
 11 59  1  0  0  0  0
 12 27  2  0  0  0  0
 12 33  1  0  0  0  0
 13 33  2  0  0  0  0
 13 37  1  0  0  0  0
 14 16  1  0  0  0  0
 14 43  1  0  0  0  0
 14 44  1  0  0  0  0
 15 20  1  0  0  0  0
 15 22  2  0  0  0  0
 16 45  1  0  0  0  0
 16 46  1  0  0  0  0
 17 18  1  0  0  0  0
 17 19  1  0  0  0  0
 17 28  2  0  0  0  0
 18 29  2  0  0  0  0
 19 21  2  0  0  0  0
 19 27  1  0  0  0  0
 20 26  2  0  0  0  0
 21 48  1  0  0  0  0
 22 25  1  0  0  0  0
 22 47  1  0  0  0  0
 23 25  2  0  0  0  0
 23 26  1  0  0  0  0
 24 49  1  0  0  0  0
 24 50  1  0  0  0  0
 24 51  1  0  0  0  0
 26 52  1  0  0  0  0
 27 36  1  0  0  0  0
 28 34  1  0  0  0  0
 28 53  1  0  0  0  0
 29 35  1  0  0  0  0
 29 54  1  0  0  0  0
 30 55  1  0  0  0  0
 30 56  1  0  0  0  0
 30 57  1  0  0  0  0
 31 60  1  0  0  0  0
 31 61  1  0  0  0  0
 31 62  1  0  0  0  0
 32 63  1  0  0  0  0
 32 64  1  0  0  0  0
 32 65  1  0  0  0  0
 34 35  2  0  0  0  0
 34 66  1  0  0  0  0
 35 67  1  0  0  0  0
 36 37  2  0  0  0  0
 36 68  1  0  0  0  0
 37 69  1  0  0  0  0
 38 40  1  0  0  0  0
 39 70  1  0  0  0  0
 39 71  1  0  0  0  0
 39 72  1  0  0  0  0
 40 41  2  0  0  0  0
 40 73  1  0  0  0  0
 41 74  1  0  0  0  0
 41 75  1  0  0  0  0
 42 76  1  0  0  0  0
 42 77  1  0  0  0  0
 42 78  1  0  0  0  0
M  END
> <PUBCHEM_COMPOUND_CID>
78357807

> <PUBCHEM_COMPOUND_CANONICALIZED>
1

> <PUBCHEM_CACTVS_COMPLEXITY>
845

> <PUBCHEM_CACTVS_HBOND_ACCEPTOR>
10

> <PUBCHEM_CACTVS_HBOND_DONOR>
3

> <PUBCHEM_CACTVS_ROTATABLE_BOND>
10

> <PUBCHEM_CACTVS_SUBSKEYS>
AAADcfB7uABAAAAAAAAAAAAAAAAAAWAAAAA8YIAAAAAAAFgB/AAAHgQQCAAADAzBnga/1vfMFIKoAzV3dHCCiCkxIqAJ2CA/fNiObuLE+duVNChu1BvY6Kew0MMOgECAAgQCECAAgQAECAQgQAAAAAAAAA==

> <PUBCHEM_IUPAC_OPENEYE_NAME>
N-[2-[2-(dimethylamino)ethyl-methyl-amino]-4-methoxy-5-[[4-(1-methylindol-3-yl)pyrimidin-2-yl]amino]phenyl]prop-2-enamide;methanesulfonic acid

> <PUBCHEM_IUPAC_CAS_NAME>
N-[2-[2-(dimethylamino)ethyl-methylamino]-4-methoxy-5-[[4-(1-methyl-3-indolyl)-2-pyrimidinyl]amino]phenyl]-2-propenamide;methanesulfonic acid

> <PUBCHEM_IUPAC_NAME_MARKUP>
<I>N</I>-[2-[2-(dimethylamino)ethyl-methylamino]-4-methoxy-5-[[4-(1-methylindol-3-yl)pyrimidin-2-yl]amino]phenyl]prop-2-enamide;methanesulfonic acid

> <PUBCHEM_IUPAC_NAME>
N-[2-[2-(dimethylamino)ethyl-methylamino]-4-methoxy-5-[[4-(1-methylindol-3-yl)pyrimidin-2-yl]amino]phenyl]prop-2-enamide;methanesulfonic acid

> <PUBCHEM_IUPAC_SYSTEMATIC_NAME>
N-[2-[2-(dimethylamino)ethyl-methyl-amino]-4-methoxy-5-[[4-(1-methylindol-3-yl)pyrimidin-2-yl]amino]phenyl]prop-2-enamide;methanesulfonic acid

> <PUBCHEM_IUPAC_TRADITIONAL_NAME>
N-[2-[2-(dimethylamino)ethyl-methyl-amino]-4-methoxy-5-[[4-(1-methylindol-3-yl)pyrimidin-2-yl]amino]phenyl]acrylamide;mesylic acid

> <PUBCHEM_IUPAC_INCHI>
InChI=1S/C28H33N7O2.CH4O3S/c1-7-27(36)30-22-16-23(26(37-6)17-25(22)34(4)15-14-33(2)3)32-28-29-13-12-21(31-28)20-18-35(5)24-11-9-8-10-19(20)24;1-5(2,3)4/h7-13,16-18H,1,14-15H2,2-6H3,(H,30,36)(H,29,31,32);1H3,(H,2,3,4)

> <PUBCHEM_IUPAC_INCHIKEY>
FUKSNUHSJBTCFJ-UHFFFAOYSA-N

> <PUBCHEM_EXACT_MASS>
595.25768848

> <PUBCHEM_MOLECULAR_FORMULA>
C29H37N7O5S

> <PUBCHEM_MOLECULAR_WEIGHT>
595.7

> <PUBCHEM_OPENEYE_CAN_SMILES>
CN1C=C(C2=CC=CC=C21)C3=NC(=NC=C3)NC4=C(C=C(C(=C4)NC(=O)C=C)N(C)CCN(C)C)OC.CS(=O)(=O)O

> <PUBCHEM_OPENEYE_ISO_SMILES>
CN1C=C(C2=CC=CC=C21)C3=NC(=NC=C3)NC4=C(C=C(C(=C4)NC(=O)C=C)N(C)CCN(C)C)OC.CS(=O)(=O)O

> <PUBCHEM_CACTVS_TPSA>
150

> <PUBCHEM_MONOISOTOPIC_WEIGHT>
595.25768848

> <PUBCHEM_TOTAL_CHARGE>
0

> <PUBCHEM_HEAVY_ATOM_COUNT>
42

> <PUBCHEM_ATOM_DEF_STEREO_COUNT>
0

> <PUBCHEM_ATOM_UDEF_STEREO_COUNT>
0

> <PUBCHEM_BOND_DEF_STEREO_COUNT>
0

> <PUBCHEM_BOND_UDEF_STEREO_COUNT>
0

> <PUBCHEM_ISOTOPIC_ATOM_COUNT>
0

> <PUBCHEM_COMPONENT_COUNT>
2

> <PUBCHEM_CACTVS_TAUTO_COUNT>
6

> <PUBCHEM_COORDINATE_TYPE>
1
5
255

> <PUBCHEM_BONDANNOTATIONS>
12  27  8
12  33  8
13  33  8
13  37  8
15  20  8
15  22  8
17  18  8
17  19  8
17  28  8
18  29  8
19  21  8
20  26  8
22  25  8
23  25  8
23  26  8
27  36  8
28  34  8
29  35  8
34  35  8
36  37  8
8  18  8
8  21  8

$$$$
71667668
  -OEChem-11282412102D

 83 87  0     1  0  0  0  0  0999 V2000
    6.8671   -1.4648    0.0000 O   0  0  0  0  0  0  0  0  0  0  0  0
    8.9494   -4.7081    0.0000 O   0  0  0  0  0  0  0  0  0  0  0  0
    3.4030    1.5352    0.0000 O   0  0  0  0  0  0  0  0  0  0  0  0
   11.1972    5.0352    0.0000 N   0  0  0  0  0  0  0  0  0  0  0  0
    8.5991    3.5352    0.0000 N   0  0  0  0  0  0  0  0  0  0  0  0
   12.9292    6.0352    0.0000 N   0  0  0  0  0  0  0  0  0  0  0  0
    7.3671   -4.0036    0.0000 N   0  0  0  0  0  0  0  0  0  0  0  0
    5.1350    1.5352    0.0000 N   0  0  0  0  0  0  0  0  0  0  0  0
    6.0010    0.0352    0.0000 N   0  0  0  0  0  0  0  0  0  0  0  0
    4.2690   -0.9648    0.0000 N   0  0  0  0  0  0  0  0  0  0  0  0
    2.5369    0.0352    0.0000 N   0  0  0  0  0  0  0  0  0  0  0  0
   10.3312    4.5352    0.0000 C   0  0  0  0  0  0  0  0  0  0  0  0
   10.3312    3.5352    0.0000 C   0  0  0  0  0  0  0  0  0  0  0  0
    9.4651    5.0352    0.0000 C   0  0  0  0  0  0  0  0  0  0  0  0
    9.4651    3.0352    0.0000 C   0  0  0  0  0  0  0  0  0  0  0  0
    8.5991    4.5352    0.0000 C   0  0  0  0  0  0  0  0  0  0  0  0
   11.1972    6.0352    0.0000 C   0  0  0  0  0  0  0  0  0  0  0  0
   12.0632    4.5352    0.0000 C   0  0  0  0  0  0  0  0  0  0  0  0
   12.0632    6.5352    0.0000 C   0  0  0  0  0  0  0  0  0  0  0  0
   12.9292    5.0352    0.0000 C   0  0  0  0  0  0  0  0  0  0  0  0
    7.7331    3.0352    0.0000 C   0  0  0  0  0  0  0  0  0  0  0  0
   13.7953    6.5352    0.0000 C   0  0  0  0  0  0  0  0  0  0  0  0
    7.7331    2.0352    0.0000 C   0  0  0  0  0  0  0  0  0  0  0  0
    6.8671    3.5352    0.0000 C   0  0  0  0  0  0  0  0  0  0  0  0
    6.8671   -2.4648    0.0000 C   0  0  2  0  0  0  0  0  0  0  0  0
    6.0580   -3.0526    0.0000 C   0  0  0  0  0  0  0  0  0  0  0  0
    7.6761   -3.0526    0.0000 C   0  0  0  0  0  0  0  0  0  0  0  0
    6.3671   -4.0036    0.0000 C   0  0  0  0  0  0  0  0  0  0  0  0
    6.8671    1.5352    0.0000 C   0  0  0  0  0  0  0  0  0  0  0  0
    6.0010    3.0352    0.0000 C   0  0  0  0  0  0  0  0  0  0  0  0
    6.0010    2.0352    0.0000 C   0  0  0  0  0  0  0  0  0  0  0  0
    7.9548   -4.8126    0.0000 C   0  0  0  0  0  0  0  0  0  0  0  0
    6.0010   -0.9648    0.0000 C   0  0  0  0  0  0  0  0  0  0  0  0
    5.1350    0.5352    0.0000 C   0  0  0  0  0  0  0  0  0  0  0  0
    5.1350   -1.4648    0.0000 C   0  0  0  0  0  0  0  0  0  0  0  0
    7.5481   -5.7262    0.0000 C   0  0  0  0  0  0  0  0  0  0  0  0
    4.2690    0.0352    0.0000 C   0  0  0  0  0  0  0  0  0  0  0  0
    5.1350   -2.4648    0.0000 C   0  0  0  0  0  0  0  0  0  0  0  0
    4.2690   -2.9648    0.0000 C   0  0  0  0  0  0  0  0  0  0  0  0
    8.1359   -6.5352    0.0000 C   0  0  0  0  0  0  0  0  0  0  0  0
    3.4030    0.5352    0.0000 C   0  0  0  0  0  0  0  0  0  0  0  0
   10.8681    4.2252    0.0000 H   0  0  0  0  0  0  0  0  0  0  0  0
   10.5432    2.9526    0.0000 H   0  0  0  0  0  0  0  0  0  0  0  0
   10.9417    3.6429    0.0000 H   0  0  0  0  0  0  0  0  0  0  0  0
    9.8637    5.5102    0.0000 H   0  0  0  0  0  0  0  0  0  0  0  0
    9.0666    5.5102    0.0000 H   0  0  0  0  0  0  0  0  0  0  0  0
    9.0666    2.5603    0.0000 H   0  0  0  0  0  0  0  0  0  0  0  0
    9.8637    2.5603    0.0000 H   0  0  0  0  0  0  0  0  0  0  0  0
    8.3871    5.1178    0.0000 H   0  0  0  0  0  0  0  0  0  0  0  0
    7.9885    4.4276    0.0000 H   0  0  0  0  0  0  0  0  0  0  0  0
   10.9851    6.6178    0.0000 H   0  0  0  0  0  0  0  0  0  0  0  0
   10.5866    5.9276    0.0000 H   0  0  0  0  0  0  0  0  0  0  0  0
   11.6647    4.0603    0.0000 H   0  0  0  0  0  0  0  0  0  0  0  0
   12.4617    4.0603    0.0000 H   0  0  0  0  0  0  0  0  0  0  0  0
   12.4617    7.0102    0.0000 H   0  0  0  0  0  0  0  0  0  0  0  0
   11.6647    7.0102    0.0000 H   0  0  0  0  0  0  0  0  0  0  0  0
   13.1413    4.4526    0.0000 H   0  0  0  0  0  0  0  0  0  0  0  0
   13.5398    5.1429    0.0000 H   0  0  0  0  0  0  0  0  0  0  0  0
   14.1053    5.9983    0.0000 H   0  0  0  0  0  0  0  0  0  0  0  0
   14.3322    6.8452    0.0000 H   0  0  0  0  0  0  0  0  0  0  0  0
   13.4853    7.0722    0.0000 H   0  0  0  0  0  0  0  0  0  0  0  0
    8.2700    1.7252    0.0000 H   0  0  0  0  0  0  0  0  0  0  0  0
    6.8671    4.1552    0.0000 H   0  0  0  0  0  0  0  0  0  0  0  0
    6.3146   -2.1833    0.0000 H   0  0  0  0  0  0  0  0  0  0  0  0
    5.7480   -2.5156    0.0000 H   0  0  0  0  0  0  0  0  0  0  0  0
    5.4916   -3.3048    0.0000 H   0  0  0  0  0  0  0  0  0  0  0  0
    8.2425   -3.3048    0.0000 H   0  0  0  0  0  0  0  0  0  0  0  0
    7.9861   -2.5156    0.0000 H   0  0  0  0  0  0  0  0  0  0  0  0
    5.7606   -4.1325    0.0000 H   0  0  0  0  0  0  0  0  0  0  0  0
    6.4319   -4.6202    0.0000 H   0  0  0  0  0  0  0  0  0  0  0  0
    6.8671    0.9152    0.0000 H   0  0  0  0  0  0  0  0  0  0  0  0
    5.4641    3.3452    0.0000 H   0  0  0  0  0  0  0  0  0  0  0  0
    4.5981    1.8452    0.0000 H   0  0  0  0  0  0  0  0  0  0  0  0
    6.9315   -5.7910    0.0000 H   0  0  0  0  0  0  0  0  0  0  0  0
    5.3471   -3.0474    0.0000 H   0  0  0  0  0  0  0  0  0  0  0  0
    5.7456   -2.3571    0.0000 H   0  0  0  0  0  0  0  0  0  0  0  0
    3.9590   -2.4278    0.0000 H   0  0  0  0  0  0  0  0  0  0  0  0
    3.7320   -3.2748    0.0000 H   0  0  0  0  0  0  0  0  0  0  0  0
    4.5790   -3.5017    0.0000 H   0  0  0  0  0  0  0  0  0  0  0  0
    7.8837   -7.1016    0.0000 H   0  0  0  0  0  0  0  0  0  0  0  0
    8.7525   -6.4704    0.0000 H   0  0  0  0  0  0  0  0  0  0  0  0
    2.0000    0.3452    0.0000 H   0  0  0  0  0  0  0  0  0  0  0  0
    2.5369   -0.5848    0.0000 H   0  0  0  0  0  0  0  0  0  0  0  0
 25  1  1  1  0  0  0
  1 33  1  0  0  0  0
  2 32  2  0  0  0  0
  3 41  2  0  0  0  0
  4 12  1  0  0  0  0
  4 17  1  0  0  0  0
  4 18  1  0  0  0  0
  5 15  1  0  0  0  0
  5 16  1  0  0  0  0
  5 21  1  0  0  0  0
  6 19  1  0  0  0  0
  6 20  1  0  0  0  0
  6 22  1  0  0  0  0
  7 27  1  0  0  0  0
  7 28  1  0  0  0  0
  7 32  1  0  0  0  0
  8 31  1  0  0  0  0
  8 34  1  0  0  0  0
  8 73  1  0  0  0  0
  9 33  1  0  0  0  0
  9 34  2  0  0  0  0
 10 35  1  0  0  0  0
 10 37  2  0  0  0  0
 11 41  1  0  0  0  0
 11 82  1  0  0  0  0
 11 83  1  0  0  0  0
 12 13  1  0  0  0  0
 12 14  1  0  0  0  0
 12 42  1  0  0  0  0
 13 15  1  0  0  0  0
 13 43  1  0  0  0  0
 13 44  1  0  0  0  0
 14 16  1  0  0  0  0
 14 45  1  0  0  0  0
 14 46  1  0  0  0  0
 15 47  1  0  0  0  0
 15 48  1  0  0  0  0
 16 49  1  0  0  0  0
 16 50  1  0  0  0  0
 17 19  1  0  0  0  0
 17 51  1  0  0  0  0
 17 52  1  0  0  0  0
 18 20  1  0  0  0  0
 18 53  1  0  0  0  0
 18 54  1  0  0  0  0
 19 55  1  0  0  0  0
 19 56  1  0  0  0  0
 20 57  1  0  0  0  0
 20 58  1  0  0  0  0
 21 23  2  0  0  0  0
 21 24  1  0  0  0  0
 22 59  1  0  0  0  0
 22 60  1  0  0  0  0
 22 61  1  0  0  0  0
 23 29  1  0  0  0  0
 23 62  1  0  0  0  0
 24 30  2  0  0  0  0
 24 63  1  0  0  0  0
 25 26  1  0  0  0  0
 25 27  1  0  0  0  0
 25 64  1  0  0  0  0
 26 28  1  0  0  0  0
 26 65  1  0  0  0  0
 26 66  1  0  0  0  0
 27 67  1  0  0  0  0
 27 68  1  0  0  0  0
 28 69  1  0  0  0  0
 28 70  1  0  0  0  0
 29 31  2  0  0  0  0
 29 71  1  0  0  0  0
 30 31  1  0  0  0  0
 30 72  1  0  0  0  0
 32 36  1  0  0  0  0
 33 35  2  0  0  0  0
 34 37  1  0  0  0  0
 35 38  1  0  0  0  0
 36 40  2  0  0  0  0
 36 74  1  0  0  0  0
 37 41  1  0  0  0  0
 38 39  1  0  0  0  0
 38 75  1  0  0  0  0
 38 76  1  0  0  0  0
 39 77  1  0  0  0  0
 39 78  1  0  0  0  0
 39 79  1  0  0  0  0
 40 80  1  0  0  0  0
 40 81  1  0  0  0  0
M  END
> <PUBCHEM_COMPOUND_CID>
71667668

> <PUBCHEM_COMPOUND_CANONICALIZED>
1

> <PUBCHEM_CACTVS_COMPLEXITY>
883

> <PUBCHEM_CACTVS_HBOND_ACCEPTOR>
9

> <PUBCHEM_CACTVS_HBOND_DONOR>
2

> <PUBCHEM_CACTVS_ROTATABLE_BOND>
9

> <PUBCHEM_CACTVS_SUBSKEYS>
AAADcfB78AAAAAAAAAAAAAAAAAAAAWAAAAA8WLEAAAAAAAABwAAAHgAQAAAACDzhlgYz9JPIFACoASdydASCiC0nciAJmAG9dMiOYGrE2bOfKKjulgLYyOcQAAAAAACAAAAAAAAAAQAAAAAAAAAAAAAAAA==

> <PUBCHEM_IUPAC_OPENEYE_NAME>
6-ethyl-3-[4-[4-(4-methylpiperazin-1-yl)-1-piperidyl]anilino]-5-[(3R)-1-prop-2-enoylpyrrolidin-3-yl]oxy-pyrazine-2-carboxamide

> <PUBCHEM_IUPAC_CAS_NAME>
6-ethyl-3-[4-[4-(4-methyl-1-piperazinyl)-1-piperidinyl]anilino]-5-[[(3R)-1-(1-oxoprop-2-enyl)-3-pyrrolidinyl]oxy]-2-pyrazinecarboxamide

> <PUBCHEM_IUPAC_NAME_MARKUP>
6-ethyl-3-[4-[4-(4-methylpiperazin-1-yl)piperidin-1-yl]anilino]-5-[(3<I>R</I>)-1-prop-2-enoylpyrrolidin-3-yl]oxypyrazine-2-carboxamide

> <PUBCHEM_IUPAC_NAME>
6-ethyl-3-[4-[4-(4-methylpiperazin-1-yl)piperidin-1-yl]anilino]-5-[(3R)-1-prop-2-enoylpyrrolidin-3-yl]oxypyrazine-2-carboxamide

> <PUBCHEM_IUPAC_SYSTEMATIC_NAME>
6-ethyl-3-[[4-[4-(4-methylpiperazin-1-yl)piperidin-1-yl]phenyl]amino]-5-[(3R)-1-prop-2-enoylpyrrolidin-3-yl]oxy-pyrazine-2-carboxamide

> <PUBCHEM_IUPAC_TRADITIONAL_NAME>
5-[(3R)-1-acryloylpyrrolidin-3-yl]oxy-6-ethyl-3-[4-[4-(4-methylpiperazino)piperidino]anilino]pyrazinamide

> <PUBCHEM_IUPAC_INCHI>
InChI=1S/C30H42N8O3/c1-4-25-30(41-24-12-15-38(20-24)26(39)5-2)34-29(27(33-25)28(31)40)32-21-6-8-22(9-7-21)36-13-10-23(11-14-36)37-18-16-35(3)17-19-37/h5-9,23-24H,2,4,10-20H2,1,3H3,(H2,31,40)(H,32,34)/t24-/m1/s1

> <PUBCHEM_IUPAC_INCHIKEY>
QKDCLUARMDUUKN-XMMPIXPASA-N

> <PUBCHEM_XLOGP3_AA>
3.4

> <PUBCHEM_EXACT_MASS>
562.33798723

> <PUBCHEM_MOLECULAR_FORMULA>
C30H42N8O3

> <PUBCHEM_MOLECULAR_WEIGHT>
562.7

> <PUBCHEM_OPENEYE_CAN_SMILES>
CCC1=C(N=C(C(=N1)C(=O)N)NC2=CC=C(C=C2)N3CCC(CC3)N4CCN(CC4)C)OC5CCN(C5)C(=O)C=C

> <PUBCHEM_OPENEYE_ISO_SMILES>
CCC1=C(N=C(C(=N1)C(=O)N)NC2=CC=C(C=C2)N3CCC(CC3)N4CCN(CC4)C)O[C@@H]5CCN(C5)C(=O)C=C

> <PUBCHEM_CACTVS_TPSA>
120

> <PUBCHEM_MONOISOTOPIC_WEIGHT>
562.33798723

> <PUBCHEM_TOTAL_CHARGE>
0

> <PUBCHEM_HEAVY_ATOM_COUNT>
41

> <PUBCHEM_ATOM_DEF_STEREO_COUNT>
1

> <PUBCHEM_ATOM_UDEF_STEREO_COUNT>
0

> <PUBCHEM_BOND_DEF_STEREO_COUNT>
0

> <PUBCHEM_BOND_UDEF_STEREO_COUNT>
0

> <PUBCHEM_ISOTOPIC_ATOM_COUNT>
0

> <PUBCHEM_COMPONENT_COUNT>
1

> <PUBCHEM_CACTVS_TAUTO_COUNT>
49

> <PUBCHEM_COORDINATE_TYPE>
1
5
255

> <PUBCHEM_BONDANNOTATIONS>
25  1  5
10  35  8
10  37  8
21  23  8
21  24  8
23  29  8
24  30  8
29  31  8
30  31  8
33  35  8
34  37  8
9  33  8
9  34  8

$$$$
11557040
  -OEChem-11282412102D

107110  0     0  0  0  0  0  0999 V2000
   15.2550    1.5776    0.0000 Cl  0  0  0  0  0  0  0  0  0  0  0  0
    5.7854    1.4799    0.0000 S   0  0  0  0  0  0  0  0  0  0  0  0
    1.4030   11.0031    0.0000 S   0  0  0  0  0  0  0  0  0  0  0  0
   13.0732   14.8784    0.0000 S   0  0  0  0  0  0  0  0  0  0  0  0
   21.3341    3.0074    0.0000 F   0  0  0  0  0  0  0  0  0  0  0  0
    9.9728    4.6376    0.0000 O   0  0  0  0  0  0  0  0  0  0  0  0
    4.8718    1.8867    0.0000 O   0  0  0  0  0  0  0  0  0  0  0  0
    6.6989    1.0732    0.0000 O   0  0  0  0  0  0  0  0  0  0  0  0
   16.9985    2.5576    0.0000 O   0  0  0  0  0  0  0  0  0  0  0  0
    1.4030   12.0031    0.0000 O   0  0  0  0  0  0  0  0  0  0  0  0
   13.0732   15.8784    0.0000 O   0  0  0  0  0  0  0  0  0  0  0  0
    2.4030   11.0031    0.0000 O   0  0  0  0  0  0  0  0  0  0  0  0
    0.4030   11.0031    0.0000 O   0  0  0  0  0  0  0  0  0  0  0  0
   14.0732   14.8784    0.0000 O   0  0  0  0  0  0  0  0  0  0  0  0
   12.0732   14.8784    0.0000 O   0  0  0  0  0  0  0  0  0  0  0  0
   13.0732   18.1947    0.0000 O   0  0  0  0  0  0  0  0  0  0  0  0
    7.5934    3.4116    0.0000 N   0  0  0  0  0  0  0  0  0  0  0  0
   13.5577    4.5975    0.0000 N   0  0  0  0  0  0  0  0  0  0  0  0
   13.5693    7.6667    0.0000 N   0  0  0  0  0  0  0  0  0  0  0  0
   14.4754    6.1113    0.0000 N   0  0  0  0  0  0  0  0  0  0  0  0
    7.1866    2.4980    0.0000 C   0  0  0  0  0  0  0  0  0  0  0  0
    6.1921    2.3935    0.0000 C   0  0  0  0  0  0  0  0  0  0  0  0
    8.5879    3.5161    0.0000 C   0  0  0  0  0  0  0  0  0  0  0  0
    8.9946    4.4296    0.0000 C   0  0  0  0  0  0  0  0  0  0  0  0
   10.0773    5.6321    0.0000 C   0  0  0  0  0  0  0  0  0  0  0  0
   10.9433    6.1321    0.0000 C   0  0  0  0  0  0  0  0  0  0  0  0
   12.6754    6.1321    0.0000 C   0  0  0  0  0  0  0  0  0  0  0  0
    8.4946    5.2957    0.0000 C   0  0  0  0  0  0  0  0  0  0  0  0
    9.1638    6.0388    0.0000 C   0  0  0  0  0  0  0  0  0  0  0  0
   11.8093    5.6321    0.0000 C   0  0  0  0  0  0  0  0  0  0  0  0
   12.6754    7.1321    0.0000 C   0  0  0  0  0  0  0  0  0  0  0  0
    5.3786    0.5664    0.0000 C   0  0  0  0  0  0  0  0  0  0  0  0
   10.9433    7.1321    0.0000 C   0  0  0  0  0  0  0  0  0  0  0  0
   13.5693    5.5974    0.0000 C   0  0  0  0  0  0  0  0  0  0  0  0
   11.8093    7.6321    0.0000 C   0  0  0  0  0  0  0  0  0  0  0  0
   14.4179    4.0875    0.0000 C   0  0  0  0  0  0  0  0  0  0  0  0
   14.4754    7.1529    0.0000 C   0  0  0  0  0  0  0  0  0  0  0  0
   14.4064    3.0876    0.0000 C   0  0  0  0  0  0  0  0  0  0  0  0
   15.2897    4.5774    0.0000 C   0  0  0  0  0  0  0  0  0  0  0  0
   16.1383    3.0675    0.0000 C   0  0  0  0  0  0  0  0  0  0  0  0
   15.2666    2.5776    0.0000 C   0  0  0  0  0  0  0  0  0  0  0  0
   16.1499    4.0675    0.0000 C   0  0  0  0  0  0  0  0  0  0  0  0
   17.8702    3.0475    0.0000 C   0  0  0  0  0  0  0  0  0  0  0  0
   18.7304    2.5375    0.0000 C   0  0  0  0  0  0  0  0  0  0  0  0
   19.6022    3.0275    0.0000 C   0  0  0  0  0  0  0  0  0  0  0  0
   18.7189    1.5376    0.0000 C   0  0  0  0  0  0  0  0  0  0  0  0
   20.4624    2.5175    0.0000 C   0  0  0  0  0  0  0  0  0  0  0  0
   19.5791    1.0276    0.0000 C   0  0  0  0  0  0  0  0  0  0  0  0
   20.4508    1.5176    0.0000 C   0  0  0  0  0  0  0  0  0  0  0  0
    1.4030   10.0031    0.0000 C   0  0  0  0  0  0  0  0  0  0  0  0
   13.0732   13.8784    0.0000 C   0  0  0  0  0  0  0  0  0  0  0  0
    1.4030    8.0031    0.0000 C   0  0  0  0  0  0  0  0  0  0  0  0
   13.0732   11.8784    0.0000 C   0  0  0  0  0  0  0  0  0  0  0  0
    0.5369    9.5031    0.0000 C   0  0  0  0  0  0  0  0  0  0  0  0
   12.2071   13.3784    0.0000 C   0  0  0  0  0  0  0  0  0  0  0  0
    2.2690    9.5031    0.0000 C   0  0  0  0  0  0  0  0  0  0  0  0
   13.9392   13.3784    0.0000 C   0  0  0  0  0  0  0  0  0  0  0  0
    0.5369    8.5031    0.0000 C   0  0  0  0  0  0  0  0  0  0  0  0
   12.2071   12.3784    0.0000 C   0  0  0  0  0  0  0  0  0  0  0  0
    2.2690    8.5031    0.0000 C   0  0  0  0  0  0  0  0  0  0  0  0
   13.9392   12.3784    0.0000 C   0  0  0  0  0  0  0  0  0  0  0  0
    1.4030    7.0031    0.0000 C   0  0  0  0  0  0  0  0  0  0  0  0
   13.0732   10.8784    0.0000 C   0  0  0  0  0  0  0  0  0  0  0  0
    7.1434    1.8795    0.0000 H   0  0  0  0  0  0  0  0  0  0  0  0
    7.7882    2.3480    0.0000 H   0  0  0  0  0  0  0  0  0  0  0  0
    6.2354    3.0120    0.0000 H   0  0  0  0  0  0  0  0  0  0  0  0
    5.5905    2.5435    0.0000 H   0  0  0  0  0  0  0  0  0  0  0  0
    8.5446    2.8976    0.0000 H   0  0  0  0  0  0  0  0  0  0  0  0
    9.1895    3.3661    0.0000 H   0  0  0  0  0  0  0  0  0  0  0  0
    7.2289    3.9132    0.0000 H   0  0  0  0  0  0  0  0  0  0  0  0
    7.8780    5.3605    0.0000 H   0  0  0  0  0  0  0  0  0  0  0  0
   11.8093    5.0121    0.0000 H   0  0  0  0  0  0  0  0  0  0  0  0
    9.0348    6.6453    0.0000 H   0  0  0  0  0  0  0  0  0  0  0  0
    4.8122    0.8186    0.0000 H   0  0  0  0  0  0  0  0  0  0  0  0
    5.1264    0.0000    0.0000 H   0  0  0  0  0  0  0  0  0  0  0  0
    5.9450    0.3142    0.0000 H   0  0  0  0  0  0  0  0  0  0  0  0
   10.4064    7.4421    0.0000 H   0  0  0  0  0  0  0  0  0  0  0  0
   11.8093    8.2521    0.0000 H   0  0  0  0  0  0  0  0  0  0  0  0
   13.0173    4.2937    0.0000 H   0  0  0  0  0  0  0  0  0  0  0  0
   15.0111    7.4650    0.0000 H   0  0  0  0  0  0  0  0  0  0  0  0
   13.8659    2.7838    0.0000 H   0  0  0  0  0  0  0  0  0  0  0  0
   15.2969    5.1974    0.0000 H   0  0  0  0  0  0  0  0  0  0  0  0
   16.6904    4.3712    0.0000 H   0  0  0  0  0  0  0  0  0  0  0  0
   18.2742    3.5178    0.0000 H   0  0  0  0  0  0  0  0  0  0  0  0
   17.4772    3.5270    0.0000 H   0  0  0  0  0  0  0  0  0  0  0  0
   19.6093    3.6474    0.0000 H   0  0  0  0  0  0  0  0  0  0  0  0
   18.1784    1.2338    0.0000 H   0  0  0  0  0  0  0  0  0  0  0  0
   19.5719    0.4077    0.0000 H   0  0  0  0  0  0  0  0  0  0  0  0
   20.9841    1.2014    0.0000 H   0  0  0  0  0  0  0  0  0  0  0  0
    0.0000    9.8131    0.0000 H   0  0  0  0  0  0  0  0  0  0  0  0
   11.6702   13.6884    0.0000 H   0  0  0  0  0  0  0  0  0  0  0  0
    2.8059    9.8131    0.0000 H   0  0  0  0  0  0  0  0  0  0  0  0
   14.4761   13.6884    0.0000 H   0  0  0  0  0  0  0  0  0  0  0  0
    0.0000    8.1931    0.0000 H   0  0  0  0  0  0  0  0  0  0  0  0
   11.6702   12.0684    0.0000 H   0  0  0  0  0  0  0  0  0  0  0  0
    2.8059    8.1931    0.0000 H   0  0  0  0  0  0  0  0  0  0  0  0
   14.4761   12.0684    0.0000 H   0  0  0  0  0  0  0  0  0  0  0  0
    0.7830    7.0031    0.0000 H   0  0  0  0  0  0  0  0  0  0  0  0
    1.4030    6.3831    0.0000 H   0  0  0  0  0  0  0  0  0  0  0  0
    2.0230    7.0031    0.0000 H   0  0  0  0  0  0  0  0  0  0  0  0
   12.4532   10.8784    0.0000 H   0  0  0  0  0  0  0  0  0  0  0  0
   13.0732   10.2584    0.0000 H   0  0  0  0  0  0  0  0  0  0  0  0
   13.6932   10.8784    0.0000 H   0  0  0  0  0  0  0  0  0  0  0  0
    1.9399   12.3131    0.0000 H   0  0  0  0  0  0  0  0  0  0  0  0
   13.6101   16.1884    0.0000 H   0  0  0  0  0  0  0  0  0  0  0  0
   13.6101   18.5047    0.0000 H   0  0  0  0  0  0  0  0  0  0  0  0
   12.5362   18.5047    0.0000 H   0  0  0  0  0  0  0  0  0  0  0  0
  1 41  1  0  0  0  0
  2  7  2  0  0  0  0
  2  8  2  0  0  0  0
  2 22  1  0  0  0  0
  2 32  1  0  0  0  0
  3 10  1  0  0  0  0
  3 12  2  0  0  0  0
  3 13  2  0  0  0  0
  3 50  1  0  0  0  0
  4 11  1  0  0  0  0
  4 14  2  0  0  0  0
  4 15  2  0  0  0  0
  4 51  1  0  0  0  0
  5 47  1  0  0  0  0
  6 24  1  0  0  0  0
  6 25  1  0  0  0  0
  9 40  1  0  0  0  0
  9 43  1  0  0  0  0
 10104  1  0  0  0  0
 11105  1  0  0  0  0
 16106  1  0  0  0  0
 16107  1  0  0  0  0
 17 21  1  0  0  0  0
 17 23  1  0  0  0  0
 17 70  1  0  0  0  0
 18 34  1  0  0  0  0
 18 36  1  0  0  0  0
 18 79  1  0  0  0  0
 19 31  1  0  0  0  0
 19 37  2  0  0  0  0
 20 34  2  0  0  0  0
 20 37  1  0  0  0  0
 21 22  1  0  0  0  0
 21 64  1  0  0  0  0
 21 65  1  0  0  0  0
 22 66  1  0  0  0  0
 22 67  1  0  0  0  0
 23 24  1  0  0  0  0
 23 68  1  0  0  0  0
 23 69  1  0  0  0  0
 24 28  2  0  0  0  0
 25 26  1  0  0  0  0
 25 29  2  0  0  0  0
 26 30  2  0  0  0  0
 26 33  1  0  0  0  0
 27 30  1  0  0  0  0
 27 31  2  0  0  0  0
 27 34  1  0  0  0  0
 28 29  1  0  0  0  0
 28 71  1  0  0  0  0
 29 73  1  0  0  0  0
 30 72  1  0  0  0  0
 31 35  1  0  0  0  0
 32 74  1  0  0  0  0
 32 75  1  0  0  0  0
 32 76  1  0  0  0  0
 33 35  2  0  0  0  0
 33 77  1  0  0  0  0
 35 78  1  0  0  0  0
 36 38  2  0  0  0  0
 36 39  1  0  0  0  0
 37 80  1  0  0  0  0
 38 41  1  0  0  0  0
 38 81  1  0  0  0  0
 39 42  2  0  0  0  0
 39 82  1  0  0  0  0
 40 41  2  0  0  0  0
 40 42  1  0  0  0  0
 42 83  1  0  0  0  0
 43 44  1  0  0  0  0
 43 84  1  0  0  0  0
 43 85  1  0  0  0  0
 44 45  2  0  0  0  0
 44 46  1  0  0  0  0
 45 47  1  0  0  0  0
 45 86  1  0  0  0  0
 46 48  2  0  0  0  0
 46 87  1  0  0  0  0
 47 49  2  0  0  0  0
 48 49  1  0  0  0  0
 48 88  1  0  0  0  0
 49 89  1  0  0  0  0
 50 54  2  0  0  0  0
 50 56  1  0  0  0  0
 51 55  2  0  0  0  0
 51 57  1  0  0  0  0
 52 58  2  0  0  0  0
 52 60  1  0  0  0  0
 52 62  1  0  0  0  0
 53 59  2  0  0  0  0
 53 61  1  0  0  0  0
 53 63  1  0  0  0  0
 54 58  1  0  0  0  0
 54 90  1  0  0  0  0
 55 59  1  0  0  0  0
 55 91  1  0  0  0  0
 56 60  2  0  0  0  0
 56 92  1  0  0  0  0
 57 61  2  0  0  0  0
 57 93  1  0  0  0  0
 58 94  1  0  0  0  0
 59 95  1  0  0  0  0
 60 96  1  0  0  0  0
 61 97  1  0  0  0  0
 62 98  1  0  0  0  0
 62 99  1  0  0  0  0
 62100  1  0  0  0  0
 63101  1  0  0  0  0
 63102  1  0  0  0  0
 63103  1  0  0  0  0
M  END
> <PUBCHEM_COMPOUND_CID>
11557040

> <PUBCHEM_COMPOUND_CANONICALIZED>
1

> <PUBCHEM_CACTVS_COMPLEXITY>
1100

> <PUBCHEM_CACTVS_HBOND_ACCEPTOR>
16

> <PUBCHEM_CACTVS_HBOND_DONOR>
5

> <PUBCHEM_CACTVS_ROTATABLE_BOND>
13

> <PUBCHEM_CACTVS_SUBSKEYS>
AAADcfB/vQBkAAAAAAAAAAAAAAAAASAAAAA8YMGDAAAAAACx/AAAHwYQCAAADA7l3i639/bIFMqoA6ZzZHDCiGk1J/AJ2Lm+b9iOLvPF//uHPSjs0BPY6ae42fOeGEACAAICCAAwgAQABAQQAAAAAAAAAA==

> <PUBCHEM_IUPAC_OPENEYE_NAME>
N-[3-chloro-4-[(3-fluorophenyl)methoxy]phenyl]-6-[5-[(2-methylsulfonylethylamino)methyl]-2-furyl]quinazolin-4-amine;4-methylbenzenesulfonic acid;hydrate

> <PUBCHEM_IUPAC_CAS_NAME>
N-[3-chloro-4-[(3-fluorophenyl)methoxy]phenyl]-6-[5-[(2-methylsulfonylethylamino)methyl]-2-furanyl]-4-quinazolinamine;4-methylbenzenesulfonic acid;hydrate

> <PUBCHEM_IUPAC_NAME_MARKUP>
<I>N</I>-[3-chloro-4-[(3-fluorophenyl)methoxy]phenyl]-6-[5-[(2-methylsulfonylethylamino)methyl]furan-2-yl]quinazolin-4-amine;4-methylbenzenesulfonic acid;hydrate

> <PUBCHEM_IUPAC_NAME>
N-[3-chloro-4-[(3-fluorophenyl)methoxy]phenyl]-6-[5-[(2-methylsulfonylethylamino)methyl]furan-2-yl]quinazolin-4-amine;4-methylbenzenesulfonic acid;hydrate

> <PUBCHEM_IUPAC_SYSTEMATIC_NAME>
N-[3-chloranyl-4-[(3-fluorophenyl)methoxy]phenyl]-6-[5-[(2-methylsulfonylethylamino)methyl]furan-2-yl]quinazolin-4-amine;4-methylbenzenesulfonic acid;hydrate

> <PUBCHEM_IUPAC_TRADITIONAL_NAME>
[5-[4-[3-chloro-4-(3-fluorobenzyl)oxy-anilino]quinazolin-6-yl]-2-furyl]methyl-(2-mesylethyl)amine;tosylic acid;hydrate

> <PUBCHEM_IUPAC_INCHI>
InChI=1S/C29H26ClFN4O4S.2C7H8O3S.H2O/c1-40(36,37)12-11-32-16-23-7-10-27(39-23)20-5-8-26-24(14-20)29(34-18-33-26)35-22-6-9-28(25(30)15-22)38-17-19-3-2-4-21(31)13-19;2*1-6-2-4-7(5-3-6)11(8,9)10;/h2-10,13-15,18,32H,11-12,16-17H2,1H3,(H,33,34,35);2*2-5H,1H3,(H,8,9,10);1H2

> <PUBCHEM_IUPAC_INCHIKEY>
XNRVGTHNYCNCFF-UHFFFAOYSA-N

> <PUBCHEM_EXACT_MASS>
942.1841276

> <PUBCHEM_MOLECULAR_FORMULA>
C43H44ClFN4O11S3

> <PUBCHEM_MOLECULAR_WEIGHT>
943.5

> <PUBCHEM_OPENEYE_CAN_SMILES>
CC1=CC=C(C=C1)S(=O)(=O)O.CC1=CC=C(C=C1)S(=O)(=O)O.CS(=O)(=O)CCNCC1=CC=C(O1)C2=CC3=C(C=C2)N=CN=C3NC4=CC(=C(C=C4)OCC5=CC(=CC=C5)F)Cl.O

> <PUBCHEM_OPENEYE_ISO_SMILES>
CC1=CC=C(C=C1)S(=O)(=O)O.CC1=CC=C(C=C1)S(=O)(=O)O.CS(=O)(=O)CCNCC1=CC=C(O1)C2=CC3=C(C=C2)N=CN=C3NC4=CC(=C(C=C4)OCC5=CC(=CC=C5)F)Cl.O

> <PUBCHEM_CACTVS_TPSA>
241

> <PUBCHEM_MONOISOTOPIC_WEIGHT>
942.1841276

> <PUBCHEM_TOTAL_CHARGE>
0

> <PUBCHEM_HEAVY_ATOM_COUNT>
63

> <PUBCHEM_ATOM_DEF_STEREO_COUNT>
0

> <PUBCHEM_ATOM_UDEF_STEREO_COUNT>
0

> <PUBCHEM_BOND_DEF_STEREO_COUNT>
0

> <PUBCHEM_BOND_UDEF_STEREO_COUNT>
0

> <PUBCHEM_ISOTOPIC_ATOM_COUNT>
0

> <PUBCHEM_COMPONENT_COUNT>
4

> <PUBCHEM_CACTVS_TAUTO_COUNT>
3

> <PUBCHEM_COORDINATE_TYPE>
1
5
255

> <PUBCHEM_BONDANNOTATIONS>
19  31  8
19  37  8
20  34  8
20  37  8
24  28  8
25  29  8
26  30  8
26  33  8
27  30  8
27  31  8
27  34  8
28  29  8
31  35  8
33  35  8
36  38  8
36  39  8
38  41  8
39  42  8
40  41  8
40  42  8
44  45  8
44  46  8
45  47  8
46  48  8
47  49  8
48  49  8
50  54  8
50  56  8
51  55  8
51  57  8
52  58  8
52  60  8
53  59  8
53  61  8
54  58  8
55  59  8
56  60  8
57  61  8
6  24  8
6  25  8

$$$$
15606394
  -OEChem-11282412102D

 83 84  0     1  0  0  0  0  0999 V2000
   16.0885    3.9623    0.0000 Cl  0  0  0  0  0  0  0  0  0  0  0  0
   16.0654    1.9624    0.0000 F   0  0  0  0  0  0  0  0  0  0  0  0
    8.6442    9.5758    0.0000 O   0  0  0  0  0  0  0  0  0  0  0  0
    9.1442    7.0369    0.0000 O   0  0  0  0  0  0  0  0  0  0  0  0
   10.0102    3.5369    0.0000 O   0  0  0  0  0  0  0  0  0  0  0  0
    4.0010    6.7203    0.0000 O   0  0  0  0  0  0  0  0  0  0  0  0
    0.5369    8.7203    0.0000 O   0  0  0  0  0  0  0  0  0  0  0  0
    9.5853   14.8205    0.0000 O   0  0  0  0  0  0  0  0  0  0  0  0
   13.0494   12.8205    0.0000 O   0  0  0  0  0  0  0  0  0  0  0  0
    2.2690    6.7203    0.0000 O   0  0  0  0  0  0  0  0  0  0  0  0
    1.4030    7.2203    0.0000 O   0  0  0  0  0  0  0  0  0  0  0  0
   10.4513   13.3205    0.0000 O   0  0  0  0  0  0  0  0  0  0  0  0
   11.3173   12.8205    0.0000 O   0  0  0  0  0  0  0  0  0  0  0  0
    9.1442    5.0369    0.0000 N   0  0  0  0  0  0  0  0  0  0  0  0
   12.6362    7.0716    0.0000 N   0  0  0  0  0  0  0  0  0  0  0  0
   12.6247    4.0023    0.0000 N   0  0  0  0  0  0  0  0  0  0  0  0
   13.5423    5.5161    0.0000 N   0  0  0  0  0  0  0  0  0  0  0  0
    7.4122    1.0369    0.0000 N   0  0  0  0  0  0  0  0  0  0  0  0
    9.1442    8.0369    0.0000 C   0  0  1  0  0  0  0  0  0  0  0  0
    9.9532    8.6247    0.0000 C   0  0  0  0  0  0  0  0  0  0  0  0
    8.3352    8.6247    0.0000 C   0  0  0  0  0  0  0  0  0  0  0  0
    9.6442    9.5758    0.0000 C   0  0  0  0  0  0  0  0  0  0  0  0
   10.0102    6.5369    0.0000 C   0  0  0  0  0  0  0  0  0  0  0  0
   10.0102    5.5369    0.0000 C   0  0  0  0  0  0  0  0  0  0  0  0
   10.8763    7.0369    0.0000 C   0  0  0  0  0  0  0  0  0  0  0  0
   11.7423    5.5369    0.0000 C   0  0  0  0  0  0  0  0  0  0  0  0
   11.7423    6.5369    0.0000 C   0  0  0  0  0  0  0  0  0  0  0  0
   10.8763    5.0369    0.0000 C   0  0  0  0  0  0  0  0  0  0  0  0
   12.6362    5.0023    0.0000 C   0  0  0  0  0  0  0  0  0  0  0  0
    9.1442    4.0369    0.0000 C   0  0  0  0  0  0  0  0  0  0  0  0
   13.5423    6.5578    0.0000 C   0  0  0  0  0  0  0  0  0  0  0  0
   13.4849    3.4924    0.0000 C   0  0  0  0  0  0  0  0  0  0  0  0
    8.2782    3.5369    0.0000 C   0  0  0  0  0  0  0  0  0  0  0  0
    8.2782    2.5369    0.0000 C   0  0  0  0  0  0  0  0  0  0  0  0
   14.3566    3.9823    0.0000 C   0  0  0  0  0  0  0  0  0  0  0  0
   13.4733    2.4924    0.0000 C   0  0  0  0  0  0  0  0  0  0  0  0
    7.4122    2.0369    0.0000 C   0  0  0  0  0  0  0  0  0  0  0  0
   15.2168    3.4723    0.0000 C   0  0  0  0  0  0  0  0  0  0  0  0
   14.3335    1.9824    0.0000 C   0  0  0  0  0  0  0  0  0  0  0  0
   15.2052    2.4724    0.0000 C   0  0  0  0  0  0  0  0  0  0  0  0
    6.5461    0.5369    0.0000 C   0  0  0  0  0  0  0  0  0  0  0  0
    8.2782    0.5369    0.0000 C   0  0  0  0  0  0  0  0  0  0  0  0
    3.1350    8.2203    0.0000 C   0  0  0  0  0  0  0  0  0  0  0  0
    2.2690    8.7203    0.0000 C   0  0  0  0  0  0  0  0  0  0  0  0
   11.3173   14.8205    0.0000 C   0  0  0  0  0  0  0  0  0  0  0  0
   12.1834   14.3205    0.0000 C   0  0  0  0  0  0  0  0  0  0  0  0
    3.1350    7.2203    0.0000 C   0  0  0  0  0  0  0  0  0  0  0  0
    1.4030    8.2203    0.0000 C   0  0  0  0  0  0  0  0  0  0  0  0
   10.4513   14.3205    0.0000 C   0  0  0  0  0  0  0  0  0  0  0  0
   12.1834   13.3205    0.0000 C   0  0  0  0  0  0  0  0  0  0  0  0
    9.6966    7.7555    0.0000 H   0  0  0  0  0  0  0  0  0  0  0  0
   10.2632    8.0878    0.0000 H   0  0  0  0  0  0  0  0  0  0  0  0
   10.5196    8.8769    0.0000 H   0  0  0  0  0  0  0  0  0  0  0  0
    7.7688    8.8769    0.0000 H   0  0  0  0  0  0  0  0  0  0  0  0
    8.0252    8.0878    0.0000 H   0  0  0  0  0  0  0  0  0  0  0  0
   10.2507    9.7047    0.0000 H   0  0  0  0  0  0  0  0  0  0  0  0
    9.5794   10.1924    0.0000 H   0  0  0  0  0  0  0  0  0  0  0  0
   10.8763    7.6569    0.0000 H   0  0  0  0  0  0  0  0  0  0  0  0
   10.8763    4.4169    0.0000 H   0  0  0  0  0  0  0  0  0  0  0  0
    8.6073    5.3469    0.0000 H   0  0  0  0  0  0  0  0  0  0  0  0
   12.0842    3.6986    0.0000 H   0  0  0  0  0  0  0  0  0  0  0  0
   14.0780    6.8698    0.0000 H   0  0  0  0  0  0  0  0  0  0  0  0
    7.7412    3.8469    0.0000 H   0  0  0  0  0  0  0  0  0  0  0  0
    8.8151    2.2269    0.0000 H   0  0  0  0  0  0  0  0  0  0  0  0
   14.3638    4.6023    0.0000 H   0  0  0  0  0  0  0  0  0  0  0  0
   12.9328    2.1887    0.0000 H   0  0  0  0  0  0  0  0  0  0  0  0
    7.2001    2.6196    0.0000 H   0  0  0  0  0  0  0  0  0  0  0  0
    6.8016    1.9293    0.0000 H   0  0  0  0  0  0  0  0  0  0  0  0
   14.3263    1.3625    0.0000 H   0  0  0  0  0  0  0  0  0  0  0  0
    6.2361    1.0739    0.0000 H   0  0  0  0  0  0  0  0  0  0  0  0
    6.0092    0.2269    0.0000 H   0  0  0  0  0  0  0  0  0  0  0  0
    6.8561    0.0000    0.0000 H   0  0  0  0  0  0  0  0  0  0  0  0
    7.9682    0.0000    0.0000 H   0  0  0  0  0  0  0  0  0  0  0  0
    8.8151    0.2269    0.0000 H   0  0  0  0  0  0  0  0  0  0  0  0
    8.5882    1.0739    0.0000 H   0  0  0  0  0  0  0  0  0  0  0  0
    3.6720    8.5303    0.0000 H   0  0  0  0  0  0  0  0  0  0  0  0
    2.2690    9.3403    0.0000 H   0  0  0  0  0  0  0  0  0  0  0  0
   11.3173   15.4405    0.0000 H   0  0  0  0  0  0  0  0  0  0  0  0
   12.7203   14.6305    0.0000 H   0  0  0  0  0  0  0  0  0  0  0  0
    4.0010    6.1003    0.0000 H   0  0  0  0  0  0  0  0  0  0  0  0
    0.0000    8.4103    0.0000 H   0  0  0  0  0  0  0  0  0  0  0  0
    9.0483   14.5105    0.0000 H   0  0  0  0  0  0  0  0  0  0  0  0
   13.0494   12.2005    0.0000 H   0  0  0  0  0  0  0  0  0  0  0  0
  1 38  1  0  0  0  0
  2 40  1  0  0  0  0
  3 21  1  0  0  0  0
  3 22  1  0  0  0  0
 19  4  1  6  0  0  0
  4 23  1  0  0  0  0
  5 30  2  0  0  0  0
  6 47  1  0  0  0  0
  6 80  1  0  0  0  0
  7 48  1  0  0  0  0
  7 81  1  0  0  0  0
  8 49  1  0  0  0  0
  8 82  1  0  0  0  0
  9 50  1  0  0  0  0
  9 83  1  0  0  0  0
 10 47  2  0  0  0  0
 11 48  2  0  0  0  0
 12 49  2  0  0  0  0
 13 50  2  0  0  0  0
 14 24  1  0  0  0  0
 14 30  1  0  0  0  0
 14 60  1  0  0  0  0
 15 27  1  0  0  0  0
 15 31  2  0  0  0  0
 16 29  1  0  0  0  0
 16 32  1  0  0  0  0
 16 61  1  0  0  0  0
 17 29  2  0  0  0  0
 17 31  1  0  0  0  0
 18 37  1  0  0  0  0
 18 41  1  0  0  0  0
 18 42  1  0  0  0  0
 19 20  1  0  0  0  0
 19 21  1  0  0  0  0
 19 51  1  0  0  0  0
 20 22  1  0  0  0  0
 20 52  1  0  0  0  0
 20 53  1  0  0  0  0
 21 54  1  0  0  0  0
 21 55  1  0  0  0  0
 22 56  1  0  0  0  0
 22 57  1  0  0  0  0
 23 24  2  0  0  0  0
 23 25  1  0  0  0  0
 24 28  1  0  0  0  0
 25 27  2  0  0  0  0
 25 58  1  0  0  0  0
 26 27  1  0  0  0  0
 26 28  2  0  0  0  0
 26 29  1  0  0  0  0
 28 59  1  0  0  0  0
 30 33  1  0  0  0  0
 31 62  1  0  0  0  0
 32 35  2  0  0  0  0
 32 36  1  0  0  0  0
 33 34  2  0  0  0  0
 33 63  1  0  0  0  0
 34 37  1  0  0  0  0
 34 64  1  0  0  0  0
 35 38  1  0  0  0  0
 35 65  1  0  0  0  0
 36 39  2  0  0  0  0
 36 66  1  0  0  0  0
 37 67  1  0  0  0  0
 37 68  1  0  0  0  0
 38 40  2  0  0  0  0
 39 40  1  0  0  0  0
 39 69  1  0  0  0  0
 41 70  1  0  0  0  0
 41 71  1  0  0  0  0
 41 72  1  0  0  0  0
 42 73  1  0  0  0  0
 42 74  1  0  0  0  0
 42 75  1  0  0  0  0
 43 44  2  0  0  0  0
 43 47  1  0  0  0  0
 43 76  1  0  0  0  0
 44 48  1  0  0  0  0
 44 77  1  0  0  0  0
 45 46  2  0  0  0  0
 45 49  1  0  0  0  0
 45 78  1  0  0  0  0
 46 50  1  0  0  0  0
 46 79  1  0  0  0  0
M  END
> <PUBCHEM_COMPOUND_CID>
15606394

> <PUBCHEM_COMPOUND_CANONICALIZED>
1

> <PUBCHEM_CACTVS_COMPLEXITY>
821

> <PUBCHEM_CACTVS_HBOND_ACCEPTOR>
16

> <PUBCHEM_CACTVS_HBOND_DONOR>
6

> <PUBCHEM_CACTVS_ROTATABLE_BOND>
12

> <PUBCHEM_CACTVS_SUBSKEYS>
AAADcfB/vQAEAAAAAAAAAAAAAAAAASAAAAA8YIAAAAAAAACx9AAAHwIQCAAADB7hni43/vfIFgCoAyfzfACCiCkxJ6AJ2CA/btiPLuLF+9uHPCjv1Bva+aeQ0AMOIACAQgICEABAAQCEBAQgAAAAAAAAAA==

> <PUBCHEM_IUPAC_OPENEYE_NAME>
(E)-N-[4-(3-chloro-4-fluoro-anilino)-7-[(3S)-tetrahydrofuran-3-yl]oxy-quinazolin-6-yl]-4-(dimethylamino)but-2-enamide;maleic acid

> <PUBCHEM_IUPAC_CAS_NAME>
(Z)-2-butenedioic acid;(E)-N-[4-(3-chloro-4-fluoroanilino)-7-[[(3S)-3-oxolanyl]oxy]-6-quinazolinyl]-4-(dimethylamino)-2-butenamide

> <PUBCHEM_IUPAC_NAME_MARKUP>
(<I>Z</I>)-but-2-enedioic acid;(<I>E</I>)-<I>N</I>-[4-(3-chloro-4-fluoroanilino)-7-[(3<I>S</I>)-oxolan-3-yl]oxyquinazolin-6-yl]-4-(dimethylamino)but-2-enamide

> <PUBCHEM_IUPAC_NAME>
(Z)-but-2-enedioic acid;(E)-N-[4-(3-chloro-4-fluoroanilino)-7-[(3S)-oxolan-3-yl]oxyquinazolin-6-yl]-4-(dimethylamino)but-2-enamide

> <PUBCHEM_IUPAC_SYSTEMATIC_NAME>
(Z)-but-2-enedioic acid;(E)-N-[4-[(3-chloranyl-4-fluoranyl-phenyl)amino]-7-[(3S)-oxolan-3-yl]oxy-quinazolin-6-yl]-4-(dimethylamino)but-2-enamide

> <PUBCHEM_IUPAC_TRADITIONAL_NAME>
(E)-N-[4-(3-chloro-4-fluoro-anilino)-7-[(3S)-tetrahydrofuran-3-yl]oxy-quinazolin-6-yl]-4-(dimethylamino)but-2-enamide;maleic acid

> <PUBCHEM_IUPAC_INCHI>
InChI=1S/C24H25ClFN5O3.2C4H4O4/c1-31(2)8-3-4-23(32)30-21-11-17-20(12-22(21)34-16-7-9-33-13-16)27-14-28-24(17)29-15-5-6-19(26)18(25)10-15;2*5-3(6)1-2-4(7)8/h3-6,10-12,14,16H,7-9,13H2,1-2H3,(H,30,32)(H,27,28,29);2*1-2H,(H,5,6)(H,7,8)/b4-3+;2*2-1-/t16-;;/m0../s1

> <PUBCHEM_IUPAC_INCHIKEY>
USNRYVNRPYXCSP-JUGPPOIOSA-N

> <PUBCHEM_EXACT_MASS>
717.1849127

> <PUBCHEM_MOLECULAR_FORMULA>
C32H33ClFN5O11

> <PUBCHEM_MOLECULAR_WEIGHT>
718.1

> <PUBCHEM_OPENEYE_CAN_SMILES>
CN(C)CC=CC(=O)NC1=C(C=C2C(=C1)C(=NC=N2)NC3=CC(=C(C=C3)F)Cl)OC4CCOC4.C(=CC(=O)O)C(=O)O.C(=CC(=O)O)C(=O)O

> <PUBCHEM_OPENEYE_ISO_SMILES>
CN(C/C=C/C(=O)NC1=C(C=C2N=CN=C(C2=C1)NC3=CC(=C(C=C3)F)Cl)O[C@@H]4COCC4)C.C(=C\C(=O)O)\C(=O)O.C(=C\C(=O)O)\C(=O)O

> <PUBCHEM_CACTVS_TPSA>
238

> <PUBCHEM_MONOISOTOPIC_WEIGHT>
717.1849127

> <PUBCHEM_TOTAL_CHARGE>
0

> <PUBCHEM_HEAVY_ATOM_COUNT>
50

> <PUBCHEM_ATOM_DEF_STEREO_COUNT>
1

> <PUBCHEM_ATOM_UDEF_STEREO_COUNT>
0

> <PUBCHEM_BOND_DEF_STEREO_COUNT>
3

> <PUBCHEM_BOND_UDEF_STEREO_COUNT>
0

> <PUBCHEM_ISOTOPIC_ATOM_COUNT>
0

> <PUBCHEM_COMPONENT_COUNT>
3

> <PUBCHEM_CACTVS_TAUTO_COUNT>
-1

> <PUBCHEM_COORDINATE_TYPE>
1
5
255

> <PUBCHEM_BONDANNOTATIONS>
15  27  8
15  31  8
17  29  8
17  31  8
23  24  8
23  25  8
24  28  8
25  27  8
26  27  8
26  28  8
26  29  8
32  35  8
32  36  8
35  38  8
36  39  8
38  40  8
39  40  8
19  4  6

$$$$
25145656
  -OEChem-11282412102D

 48 52  0     0  0  0  0  0  0999 V2000
    2.0000    1.1133    0.0000 F   0  0  0  0  0  0  0  0  0  0  0  0
    2.3572    2.8081    0.0000 O   0  0  0  0  0  0  0  0  0  0  0  0
    5.8675   -2.3569    0.0000 N   0  0  0  0  0  0  0  0  0  0  0  0
    5.5568   -1.4064    0.0000 N   0  0  0  0  0  0  0  0  0  0  0  0
    5.7004   -3.9600    0.0000 N   0  0  0  0  0  0  0  0  0  0  0  0
    4.2212   -2.8950    0.0000 N   0  0  0  0  0  0  0  0  0  0  0  0
   11.1333   -4.2967    0.0000 N   0  0  0  0  0  0  0  0  0  0  0  0
    4.0035    3.3462    0.0000 N   0  0  0  0  0  0  0  0  0  0  0  0
    7.6413   -2.2620    0.0000 C   0  0  0  0  0  0  0  0  0  0  0  0
    6.7753   -2.7620    0.0000 C   0  0  0  0  0  0  0  0  0  0  0  0
    8.5073   -2.7620    0.0000 C   0  0  0  0  0  0  0  0  0  0  0  0
    9.3734   -2.2620    0.0000 C   0  0  0  0  0  0  0  0  0  0  0  0
    5.1997   -3.1012    0.0000 C   0  0  0  0  0  0  0  0  0  0  0  0
   10.2394   -2.7620    0.0000 C   0  0  0  0  0  0  0  0  0  0  0  0
    6.6722   -3.7508    0.0000 C   0  0  0  0  0  0  0  0  0  0  0  0
    8.5073   -3.7620    0.0000 C   0  0  0  0  0  0  0  0  0  0  0  0
    4.5783   -1.2002    0.0000 C   0  0  0  0  0  0  0  0  0  0  0  0
   10.2394   -3.7620    0.0000 C   0  0  0  0  0  0  0  0  0  0  0  0
    4.2677   -0.2497    0.0000 C   0  0  0  0  0  0  0  0  0  0  0  0
    9.3734   -4.2620    0.0000 C   0  0  0  0  0  0  0  0  0  0  0  0
    3.9105   -1.9445    0.0000 C   0  0  0  0  0  0  0  0  0  0  0  0
   11.1333   -2.2274    0.0000 C   0  0  0  0  0  0  0  0  0  0  0  0
    3.2892   -0.0435    0.0000 C   0  0  0  0  0  0  0  0  0  0  0  0
    4.9355    0.4946    0.0000 C   0  0  0  0  0  0  0  0  0  0  0  0
    3.6464    1.6514    0.0000 C   0  0  0  0  0  0  0  0  0  0  0  0
    2.9785    0.9071    0.0000 C   0  0  0  0  0  0  0  0  0  0  0  0
    4.6249    1.4452    0.0000 C   0  0  0  0  0  0  0  0  0  0  0  0
   12.0394   -2.7412    0.0000 C   0  0  0  0  0  0  0  0  0  0  0  0
   12.0394   -3.7829    0.0000 C   0  0  0  0  0  0  0  0  0  0  0  0
    3.3357    2.6019    0.0000 C   0  0  0  0  0  0  0  0  0  0  0  0
    3.6929    4.2967    0.0000 C   0  0  0  0  0  0  0  0  0  0  0  0
    8.0398   -1.7871    0.0000 H   0  0  0  0  0  0  0  0  0  0  0  0
    7.2428   -1.7871    0.0000 H   0  0  0  0  0  0  0  0  0  0  0  0
    9.3734   -1.6420    0.0000 H   0  0  0  0  0  0  0  0  0  0  0  0
    7.1337   -4.1648    0.0000 H   0  0  0  0  0  0  0  0  0  0  0  0
    7.9704   -4.0720    0.0000 H   0  0  0  0  0  0  0  0  0  0  0  0
    9.3734   -4.8820    0.0000 H   0  0  0  0  0  0  0  0  0  0  0  0
    3.3038   -1.8166    0.0000 H   0  0  0  0  0  0  0  0  0  0  0  0
   11.1262   -1.6074    0.0000 H   0  0  0  0  0  0  0  0  0  0  0  0
    2.8751   -0.5049    0.0000 H   0  0  0  0  0  0  0  0  0  0  0  0
    5.5422    0.3668    0.0000 H   0  0  0  0  0  0  0  0  0  0  0  0
    5.0389    1.9066    0.0000 H   0  0  0  0  0  0  0  0  0  0  0  0
   12.5751   -2.4292    0.0000 H   0  0  0  0  0  0  0  0  0  0  0  0
   12.5751   -4.0949    0.0000 H   0  0  0  0  0  0  0  0  0  0  0  0
    4.6102    3.2183    0.0000 H   0  0  0  0  0  0  0  0  0  0  0  0
    4.2822    4.4893    0.0000 H   0  0  0  0  0  0  0  0  0  0  0  0
    3.5003    4.8860    0.0000 H   0  0  0  0  0  0  0  0  0  0  0  0
    3.1035    4.1041    0.0000 H   0  0  0  0  0  0  0  0  0  0  0  0
  1 26  1  0  0  0  0
  2 30  2  0  0  0  0
  3  4  1  0  0  0  0
  3 10  1  0  0  0  0
  3 13  1  0  0  0  0
  4 17  2  0  0  0  0
  5 13  2  0  0  0  0
  5 15  1  0  0  0  0
  6 13  1  0  0  0  0
  6 21  2  0  0  0  0
  7 18  1  0  0  0  0
  7 29  2  0  0  0  0
  8 30  1  0  0  0  0
  8 31  1  0  0  0  0
  8 45  1  0  0  0  0
  9 10  1  0  0  0  0
  9 11  1  0  0  0  0
  9 32  1  0  0  0  0
  9 33  1  0  0  0  0
 10 15  2  0  0  0  0
 11 12  2  0  0  0  0
 11 16  1  0  0  0  0
 12 14  1  0  0  0  0
 12 34  1  0  0  0  0
 14 18  2  0  0  0  0
 14 22  1  0  0  0  0
 15 35  1  0  0  0  0
 16 20  2  0  0  0  0
 16 36  1  0  0  0  0
 17 19  1  0  0  0  0
 17 21  1  0  0  0  0
 18 20  1  0  0  0  0
 19 23  2  0  0  0  0
 19 24  1  0  0  0  0
 20 37  1  0  0  0  0
 21 38  1  0  0  0  0
 22 28  2  0  0  0  0
 22 39  1  0  0  0  0
 23 26  1  0  0  0  0
 23 40  1  0  0  0  0
 24 27  2  0  0  0  0
 24 41  1  0  0  0  0
 25 26  2  0  0  0  0
 25 27  1  0  0  0  0
 25 30  1  0  0  0  0
 27 42  1  0  0  0  0
 28 29  1  0  0  0  0
 28 43  1  0  0  0  0
 29 44  1  0  0  0  0
 31 46  1  0  0  0  0
 31 47  1  0  0  0  0
 31 48  1  0  0  0  0
M  END
> <PUBCHEM_COMPOUND_CID>
25145656

> <PUBCHEM_COMPOUND_CANONICALIZED>
1

> <PUBCHEM_CACTVS_COMPLEXITY>
637

> <PUBCHEM_CACTVS_HBOND_ACCEPTOR>
6

> <PUBCHEM_CACTVS_HBOND_DONOR>
1

> <PUBCHEM_CACTVS_ROTATABLE_BOND>
4

> <PUBCHEM_CACTVS_SUBSKEYS>
AAADceB7oQAAAAAAAAAAAAAAAAAAAWAAAAA8eIEAAAAAAFix/gAAHwAYAAAADAjBngw/0PbIEACqAzV3dACShC81EqAd2KE4dNiIaPLAnZGUoQhoigLIyacYiMCOSAACAAACAACQAAQAAAQAAAAAAAAAAA==

> <PUBCHEM_IUPAC_OPENEYE_NAME>
2-fluoro-N-methyl-4-[7-(6-quinolylmethyl)imidazo[1,2-b][1,2,4]triazin-2-yl]benzamide

> <PUBCHEM_IUPAC_CAS_NAME>
2-fluoro-N-methyl-4-[7-(6-quinolinylmethyl)-2-imidazo[1,2-b][1,2,4]triazinyl]benzamide

> <PUBCHEM_IUPAC_NAME_MARKUP>
2-fluoro-<I>N</I>-methyl-4-[7-(quinolin-6-ylmethyl)imidazo[1,2-b][1,2,4]triazin-2-yl]benzamide

> <PUBCHEM_IUPAC_NAME>
2-fluoro-N-methyl-4-[7-(quinolin-6-ylmethyl)imidazo[1,2-b][1,2,4]triazin-2-yl]benzamide

> <PUBCHEM_IUPAC_SYSTEMATIC_NAME>
2-fluoranyl-N-methyl-4-[7-(quinolin-6-ylmethyl)imidazo[1,2-b][1,2,4]triazin-2-yl]benzamide

> <PUBCHEM_IUPAC_TRADITIONAL_NAME>
2-fluoro-N-methyl-4-[7-(6-quinolylmethyl)imidazo[1,2-b][1,2,4]triazin-2-yl]benzamide

> <PUBCHEM_IUPAC_INCHI>
InChI=1S/C23H17FN6O/c1-25-22(31)18-6-5-16(11-19(18)24)21-13-28-23-27-12-17(30(23)29-21)10-14-4-7-20-15(9-14)3-2-8-26-20/h2-9,11-13H,10H2,1H3,(H,25,31)

> <PUBCHEM_IUPAC_INCHIKEY>
LIOLIMKSCNQPLV-UHFFFAOYSA-N

> <PUBCHEM_XLOGP3_AA>
2.9

> <PUBCHEM_EXACT_MASS>
412.14478735

> <PUBCHEM_MOLECULAR_FORMULA>
C23H17FN6O

> <PUBCHEM_MOLECULAR_WEIGHT>
412.4

> <PUBCHEM_OPENEYE_CAN_SMILES>
CNC(=O)C1=C(C=C(C=C1)C2=NN3C(=CN=C3N=C2)CC4=CC5=C(C=C4)N=CC=C5)F

> <PUBCHEM_OPENEYE_ISO_SMILES>
CNC(=O)C1=C(C=C(C=C1)C2=NN3C(=CN=C3N=C2)CC4=CC5=C(C=C4)N=CC=C5)F

> <PUBCHEM_CACTVS_TPSA>
85.1

> <PUBCHEM_MONOISOTOPIC_WEIGHT>
412.14478735

> <PUBCHEM_TOTAL_CHARGE>
0

> <PUBCHEM_HEAVY_ATOM_COUNT>
31

> <PUBCHEM_ATOM_DEF_STEREO_COUNT>
0

> <PUBCHEM_ATOM_UDEF_STEREO_COUNT>
0

> <PUBCHEM_BOND_DEF_STEREO_COUNT>
0

> <PUBCHEM_BOND_UDEF_STEREO_COUNT>
0

> <PUBCHEM_ISOTOPIC_ATOM_COUNT>
0

> <PUBCHEM_COMPONENT_COUNT>
1

> <PUBCHEM_CACTVS_TAUTO_COUNT>
-1

> <PUBCHEM_COORDINATE_TYPE>
1
5
255

> <PUBCHEM_BONDANNOTATIONS>
10  15  8
11  12  8
11  16  8
12  14  8
14  18  8
14  22  8
16  20  8
17  21  8
18  20  8
19  23  8
19  24  8
22  28  8
23  26  8
24  27  8
25  26  8
25  27  8
28  29  8
3  10  8
3  13  8
3  4  8
4  17  8
5  13  8
5  15  8
6  13  8
6  21  8
7  18  8
7  29  8

$$$$
72734520
  -OEChem-11282412102D

 62 66  0     0  0  0  0  0  0999 V2000
    4.5981   -3.6900    0.0000 F   0  0  0  0  0  0  0  0  0  0  0  0
    9.7942   -0.6900    0.0000 O   0  0  0  0  0  0  0  0  0  0  0  0
    9.7942    2.3100    0.0000 O   0  0  0  0  0  0  0  0  0  0  0  0
    4.5981   -1.6900    0.0000 N   0  0  0  0  0  0  0  0  0  0  0  0
    2.8660   -0.6900    0.0000 N   0  0  0  0  0  0  0  0  0  0  0  0
    8.0622   -3.6900    0.0000 N   0  0  0  0  0  0  0  0  0  0  0  0
    9.7942   -3.6900    0.0000 N   0  0  0  0  0  0  0  0  0  0  0  0
    8.9282   -2.1900    0.0000 N   0  0  0  0  0  0  0  0  0  0  0  0
   11.6065   -3.4947    0.0000 N   0  0  0  0  0  0  0  0  0  0  0  0
    8.0622    2.3100    0.0000 N   0  0  0  0  0  0  0  0  0  0  0  0
    3.7320   -2.1900    0.0000 C   0  0  0  0  0  0  0  0  0  0  0  0
    4.5981   -0.6900    0.0000 C   0  0  0  0  0  0  0  0  0  0  0  0
    2.8660   -1.6900    0.0000 C   0  0  0  0  0  0  0  0  0  0  0  0
    3.7320   -0.1900    0.0000 C   0  0  0  0  0  0  0  0  0  0  0  0
    5.4641   -2.1900    0.0000 C   0  0  0  0  0  0  0  0  0  0  0  0
    2.0000   -0.1900    0.0000 C   0  0  0  0  0  0  0  0  0  0  0  0
    5.4641   -3.1900    0.0000 C   0  0  0  0  0  0  0  0  0  0  0  0
    6.3301   -1.6900    0.0000 C   0  0  0  0  0  0  0  0  0  0  0  0
    6.3301   -3.6900    0.0000 C   0  0  0  0  0  0  0  0  0  0  0  0
    7.1962   -2.1900    0.0000 C   0  0  0  0  0  0  0  0  0  0  0  0
    7.1962   -3.1900    0.0000 C   0  0  0  0  0  0  0  0  0  0  0  0
    8.9282   -3.1900    0.0000 C   0  0  0  0  0  0  0  0  0  0  0  0
   10.6603   -2.1900    0.0000 C   0  0  0  0  0  0  0  0  0  0  0  0
   10.6603   -3.1900    0.0000 C   0  0  0  0  0  0  0  0  0  0  0  0
    9.7942   -1.6900    0.0000 C   0  0  0  0  0  0  0  0  0  0  0  0
   11.6065   -1.8853    0.0000 C   0  0  0  0  0  0  0  0  0  0  0  0
   12.1901   -2.6900    0.0000 C   0  0  0  0  0  0  0  0  0  0  0  0
    8.9282   -0.1900    0.0000 C   0  0  0  0  0  0  0  0  0  0  0  0
    8.9282    0.8100    0.0000 C   0  0  0  0  0  0  0  0  0  0  0  0
    8.0622   -0.6900    0.0000 C   0  0  0  0  0  0  0  0  0  0  0  0
    8.0622    1.3100    0.0000 C   0  0  0  0  0  0  0  0  0  0  0  0
    7.1962    0.8100    0.0000 C   0  0  0  0  0  0  0  0  0  0  0  0
    7.1962   -0.1900    0.0000 C   0  0  0  0  0  0  0  0  0  0  0  0
    8.9282    2.8100    0.0000 C   0  0  0  0  0  0  0  0  0  0  0  0
    8.9282    3.8100    0.0000 C   0  0  0  0  0  0  0  0  0  0  0  0
    9.7942    4.3100    0.0000 C   0  0  0  0  0  0  0  0  0  0  0  0
    3.3335   -2.6650    0.0000 H   0  0  0  0  0  0  0  0  0  0  0  0
    4.1306   -2.6650    0.0000 H   0  0  0  0  0  0  0  0  0  0  0  0
    5.2087   -0.7977    0.0000 H   0  0  0  0  0  0  0  0  0  0  0  0
    4.8101   -0.1074    0.0000 H   0  0  0  0  0  0  0  0  0  0  0  0
    2.2554   -1.5823    0.0000 H   0  0  0  0  0  0  0  0  0  0  0  0
    2.6540   -2.2726    0.0000 H   0  0  0  0  0  0  0  0  0  0  0  0
    4.1306    0.2849    0.0000 H   0  0  0  0  0  0  0  0  0  0  0  0
    3.3335    0.2849    0.0000 H   0  0  0  0  0  0  0  0  0  0  0  0
    2.3100    0.3469    0.0000 H   0  0  0  0  0  0  0  0  0  0  0  0
    1.4631    0.1200    0.0000 H   0  0  0  0  0  0  0  0  0  0  0  0
    1.6900   -0.7269    0.0000 H   0  0  0  0  0  0  0  0  0  0  0  0
    6.3301   -1.0700    0.0000 H   0  0  0  0  0  0  0  0  0  0  0  0
    6.3301   -4.3100    0.0000 H   0  0  0  0  0  0  0  0  0  0  0  0
    7.7331   -1.8800    0.0000 H   0  0  0  0  0  0  0  0  0  0  0  0
    8.0622   -4.3100    0.0000 H   0  0  0  0  0  0  0  0  0  0  0  0
   11.7991   -1.2960    0.0000 H   0  0  0  0  0  0  0  0  0  0  0  0
   11.7991   -4.0841    0.0000 H   0  0  0  0  0  0  0  0  0  0  0  0
   12.8101   -2.6900    0.0000 H   0  0  0  0  0  0  0  0  0  0  0  0
    9.4651    1.1200    0.0000 H   0  0  0  0  0  0  0  0  0  0  0  0
    8.0622   -1.3100    0.0000 H   0  0  0  0  0  0  0  0  0  0  0  0
    6.6592    1.1200    0.0000 H   0  0  0  0  0  0  0  0  0  0  0  0
    6.6592   -0.5000    0.0000 H   0  0  0  0  0  0  0  0  0  0  0  0
    7.5252    2.6200    0.0000 H   0  0  0  0  0  0  0  0  0  0  0  0
    8.3913    4.1200    0.0000 H   0  0  0  0  0  0  0  0  0  0  0  0
   10.3312    4.0000    0.0000 H   0  0  0  0  0  0  0  0  0  0  0  0
    9.7942    4.9300    0.0000 H   0  0  0  0  0  0  0  0  0  0  0  0
  1 17  1  0  0  0  0
  2 25  1  0  0  0  0
  2 28  1  0  0  0  0
  3 34  2  0  0  0  0
  4 11  1  0  0  0  0
  4 12  1  0  0  0  0
  4 15  1  0  0  0  0
  5 13  1  0  0  0  0
  5 14  1  0  0  0  0
  5 16  1  0  0  0  0
  6 21  1  0  0  0  0
  6 22  1  0  0  0  0
  6 51  1  0  0  0  0
  7 22  2  0  0  0  0
  7 24  1  0  0  0  0
  8 22  1  0  0  0  0
  8 25  2  0  0  0  0
  9 24  1  0  0  0  0
  9 27  1  0  0  0  0
  9 53  1  0  0  0  0
 10 31  1  0  0  0  0
 10 34  1  0  0  0  0
 10 59  1  0  0  0  0
 11 13  1  0  0  0  0
 11 37  1  0  0  0  0
 11 38  1  0  0  0  0
 12 14  1  0  0  0  0
 12 39  1  0  0  0  0
 12 40  1  0  0  0  0
 13 41  1  0  0  0  0
 13 42  1  0  0  0  0
 14 43  1  0  0  0  0
 14 44  1  0  0  0  0
 15 17  2  0  0  0  0
 15 18  1  0  0  0  0
 16 45  1  0  0  0  0
 16 46  1  0  0  0  0
 16 47  1  0  0  0  0
 17 19  1  0  0  0  0
 18 20  2  0  0  0  0
 18 48  1  0  0  0  0
 19 21  2  0  0  0  0
 19 49  1  0  0  0  0
 20 21  1  0  0  0  0
 20 50  1  0  0  0  0
 23 24  2  0  0  0  0
 23 25  1  0  0  0  0
 23 26  1  0  0  0  0
 26 27  2  0  0  0  0
 26 52  1  0  0  0  0
 27 54  1  0  0  0  0
 28 29  1  0  0  0  0
 28 30  2  0  0  0  0
 29 31  2  0  0  0  0
 29 55  1  0  0  0  0
 30 33  1  0  0  0  0
 30 56  1  0  0  0  0
 31 32  1  0  0  0  0
 32 33  2  0  0  0  0
 32 57  1  0  0  0  0
 33 58  1  0  0  0  0
 34 35  1  0  0  0  0
 35 36  2  0  0  0  0
 35 60  1  0  0  0  0
 36 61  1  0  0  0  0
 36 62  1  0  0  0  0
M  END
> <PUBCHEM_COMPOUND_CID>
72734520

> <PUBCHEM_COMPOUND_CANONICALIZED>
1

> <PUBCHEM_CACTVS_COMPLEXITY>
752

> <PUBCHEM_CACTVS_HBOND_ACCEPTOR>
8

> <PUBCHEM_CACTVS_HBOND_DONOR>
3

> <PUBCHEM_CACTVS_ROTATABLE_BOND>
7

> <PUBCHEM_CACTVS_SUBSKEYS>
AAADceB7sQAAAAAAAAAAAAAAAAAAAWAAAAA8eIEAAAAAAFgB/AAAHwAQAAAADAzBmww/9t/JlACoAjd3dACCiCmxIqAJ2aA+bNiMbuLE+duePCju1BvI6KewUAMIAACAAgAAAAAAAQAEAAAAAAAAAAAAAA==

> <PUBCHEM_IUPAC_OPENEYE_NAME>
N-[3-[[2-[3-fluoro-4-(4-methylpiperazin-1-yl)anilino]-7H-pyrrolo[2,3-d]pyrimidin-4-yl]oxy]phenyl]prop-2-enamide

> <PUBCHEM_IUPAC_CAS_NAME>
N-[3-[[2-[3-fluoro-4-(4-methyl-1-piperazinyl)anilino]-7H-pyrrolo[2,3-d]pyrimidin-4-yl]oxy]phenyl]-2-propenamide

> <PUBCHEM_IUPAC_NAME_MARKUP>
<I>N</I>-[3-[[2-[3-fluoro-4-(4-methylpiperazin-1-yl)anilino]-7<I>H</I>-pyrrolo[2,3-d]pyrimidin-4-yl]oxy]phenyl]prop-2-enamide

> <PUBCHEM_IUPAC_NAME>
N-[3-[[2-[3-fluoro-4-(4-methylpiperazin-1-yl)anilino]-7H-pyrrolo[2,3-d]pyrimidin-4-yl]oxy]phenyl]prop-2-enamide

> <PUBCHEM_IUPAC_SYSTEMATIC_NAME>
N-[3-[[2-[[3-fluoranyl-4-(4-methylpiperazin-1-yl)phenyl]amino]-7H-pyrrolo[2,3-d]pyrimidin-4-yl]oxy]phenyl]prop-2-enamide

> <PUBCHEM_IUPAC_TRADITIONAL_NAME>
N-[3-[[2-[3-fluoro-4-(4-methylpiperazino)anilino]-7H-pyrrolo[2,3-d]pyrimidin-4-yl]oxy]phenyl]acrylamide

> <PUBCHEM_IUPAC_INCHI>
InChI=1S/C26H26FN7O2/c1-3-23(35)29-17-5-4-6-19(15-17)36-25-20-9-10-28-24(20)31-26(32-25)30-18-7-8-22(21(27)16-18)34-13-11-33(2)12-14-34/h3-10,15-16H,1,11-14H2,2H3,(H,29,35)(H2,28,30,31,32)

> <PUBCHEM_IUPAC_INCHIKEY>
UOFYSRZSLXWIQB-UHFFFAOYSA-N

> <PUBCHEM_XLOGP3_AA>
4.2

> <PUBCHEM_EXACT_MASS>
487.21320126

> <PUBCHEM_MOLECULAR_FORMULA>
C26H26FN7O2

> <PUBCHEM_MOLECULAR_WEIGHT>
487.5

> <PUBCHEM_OPENEYE_CAN_SMILES>
CN1CCN(CC1)C2=C(C=C(C=C2)NC3=NC4=C(C=CN4)C(=N3)OC5=CC=CC(=C5)NC(=O)C=C)F

> <PUBCHEM_OPENEYE_ISO_SMILES>
CN1CCN(CC1)C2=C(C=C(C=C2)NC3=NC4=C(C=CN4)C(=N3)OC5=CC=CC(=C5)NC(=O)C=C)F

> <PUBCHEM_CACTVS_TPSA>
98.4

> <PUBCHEM_MONOISOTOPIC_WEIGHT>
487.21320126

> <PUBCHEM_TOTAL_CHARGE>
0

> <PUBCHEM_HEAVY_ATOM_COUNT>
36

> <PUBCHEM_ATOM_DEF_STEREO_COUNT>
0

> <PUBCHEM_ATOM_UDEF_STEREO_COUNT>
0

> <PUBCHEM_BOND_DEF_STEREO_COUNT>
0

> <PUBCHEM_BOND_UDEF_STEREO_COUNT>
0

> <PUBCHEM_ISOTOPIC_ATOM_COUNT>
0

> <PUBCHEM_COMPONENT_COUNT>
1

> <PUBCHEM_CACTVS_TAUTO_COUNT>
-1

> <PUBCHEM_COORDINATE_TYPE>
1
5
255

> <PUBCHEM_BONDANNOTATIONS>
15  17  8
15  18  8
17  19  8
18  20  8
19  21  8
20  21  8
23  24  8
23  25  8
23  26  8
26  27  8
28  29  8
28  30  8
29  31  8
30  33  8
31  32  8
32  33  8
7  22  8
7  24  8
8  22  8
8  25  8
9  24  8
9  27  8

$$$$
49803313
  -OEChem-11282412102D

 84 88  0     0  0  0  0  0  0999 V2000
    4.5981    0.3450    0.0000 O   0  0  0  0  0  0  0  0  0  0  0  0
    8.9282    4.8450    0.0000 O   0  0  0  0  0  0  0  0  0  0  0  0
    2.0000    4.8450    0.0000 O   0  0  0  0  0  0  0  0  0  0  0  0
    2.8660   -3.6550    0.0000 N   0  0  0  0  0  0  0  0  0  0  0  0
    2.8660   -0.6550    0.0000 N   0  0  0  0  0  0  0  0  0  0  0  0
    2.8660   -5.6550    0.0000 N   0  0  0  0  0  0  0  0  0  0  0  0
    6.3301    3.3450    0.0000 N   0  0  0  0  0  0  0  0  0  0  0  0
    2.8660    3.3450    0.0000 N   0  0  0  0  0  0  0  0  0  0  0  0
    4.5981    3.3450    0.0000 N   0  0  0  0  0  0  0  0  0  0  0  0
    4.5981    5.3450    0.0000 N   0  0  0  0  0  0  0  0  0  0  0  0
    2.8660    6.3450    0.0000 N   0  0  0  0  0  0  0  0  0  0  0  0
    2.8660   -2.6550    0.0000 C   0  0  0  0  0  0  0  0  0  0  0  0
    2.0000   -2.1550    0.0000 C   0  0  0  0  0  0  0  0  0  0  0  0
    3.7320   -2.1550    0.0000 C   0  0  0  0  0  0  0  0  0  0  0  0
    2.0000   -1.1550    0.0000 C   0  0  0  0  0  0  0  0  0  0  0  0
    3.7320   -1.1550    0.0000 C   0  0  0  0  0  0  0  0  0  0  0  0
    2.0000   -4.1550    0.0000 C   0  0  0  0  0  0  0  0  0  0  0  0
    3.7320   -4.1550    0.0000 C   0  0  0  0  0  0  0  0  0  0  0  0
    2.0000   -5.1550    0.0000 C   0  0  0  0  0  0  0  0  0  0  0  0
    3.7320   -5.1550    0.0000 C   0  0  0  0  0  0  0  0  0  0  0  0
    2.8660    0.3450    0.0000 C   0  0  0  0  0  0  0  0  0  0  0  0
    2.8660   -6.6550    0.0000 C   0  0  0  0  0  0  0  0  0  0  0  0
    3.7320    0.8450    0.0000 C   0  0  0  0  0  0  0  0  0  0  0  0
    2.0000    0.8450    0.0000 C   0  0  0  0  0  0  0  0  0  0  0  0
    3.7320    1.8450    0.0000 C   0  0  0  0  0  0  0  0  0  0  0  0
    2.0000    1.8450    0.0000 C   0  0  0  0  0  0  0  0  0  0  0  0
    2.8660    2.3450    0.0000 C   0  0  0  0  0  0  0  0  0  0  0  0
    7.1962    3.8450    0.0000 C   0  0  0  0  0  0  0  0  0  0  0  0
    8.0622    3.3450    0.0000 C   0  0  0  0  0  0  0  0  0  0  0  0
    7.1962    4.8450    0.0000 C   0  0  0  0  0  0  0  0  0  0  0  0
    8.9282    3.8450    0.0000 C   0  0  0  0  0  0  0  0  0  0  0  0
    8.0622    5.3450    0.0000 C   0  0  0  0  0  0  0  0  0  0  0  0
    5.4641    3.8450    0.0000 C   0  0  0  0  0  0  0  0  0  0  0  0
    3.7320    3.8450    0.0000 C   0  0  0  0  0  0  0  0  0  0  0  0
    5.4641    0.8450    0.0000 C   0  0  0  0  0  0  0  0  0  0  0  0
    5.4641    4.8450    0.0000 C   0  0  0  0  0  0  0  0  0  0  0  0
    3.7320    4.8450    0.0000 C   0  0  0  0  0  0  0  0  0  0  0  0
    6.3301    5.3450    0.0000 C   0  0  0  0  0  0  0  0  0  0  0  0
    2.8660    5.3450    0.0000 C   0  0  0  0  0  0  0  0  0  0  0  0
    6.3301    6.3450    0.0000 C   0  0  0  0  0  0  0  0  0  0  0  0
    3.4030   -2.9650    0.0000 H   0  0  0  0  0  0  0  0  0  0  0  0
    1.3894   -2.0473    0.0000 H   0  0  0  0  0  0  0  0  0  0  0  0
    1.7880   -2.7376    0.0000 H   0  0  0  0  0  0  0  0  0  0  0  0
    3.9441   -2.7376    0.0000 H   0  0  0  0  0  0  0  0  0  0  0  0
    4.3426   -2.0473    0.0000 H   0  0  0  0  0  0  0  0  0  0  0  0
    1.7880   -0.5724    0.0000 H   0  0  0  0  0  0  0  0  0  0  0  0
    1.3894   -1.2627    0.0000 H   0  0  0  0  0  0  0  0  0  0  0  0
    4.3426   -1.2627    0.0000 H   0  0  0  0  0  0  0  0  0  0  0  0
    3.9441   -0.5724    0.0000 H   0  0  0  0  0  0  0  0  0  0  0  0
    1.7880   -3.5724    0.0000 H   0  0  0  0  0  0  0  0  0  0  0  0
    1.3894   -4.2627    0.0000 H   0  0  0  0  0  0  0  0  0  0  0  0
    4.3426   -4.2627    0.0000 H   0  0  0  0  0  0  0  0  0  0  0  0
    3.9441   -3.5724    0.0000 H   0  0  0  0  0  0  0  0  0  0  0  0
    1.3894   -5.0473    0.0000 H   0  0  0  0  0  0  0  0  0  0  0  0
    1.7880   -5.7376    0.0000 H   0  0  0  0  0  0  0  0  0  0  0  0
    3.9441   -5.7376    0.0000 H   0  0  0  0  0  0  0  0  0  0  0  0
    4.3426   -5.0473    0.0000 H   0  0  0  0  0  0  0  0  0  0  0  0
    2.2460   -6.6550    0.0000 H   0  0  0  0  0  0  0  0  0  0  0  0
    2.8660   -7.2750    0.0000 H   0  0  0  0  0  0  0  0  0  0  0  0
    3.4860   -6.6550    0.0000 H   0  0  0  0  0  0  0  0  0  0  0  0
    1.4631    0.5350    0.0000 H   0  0  0  0  0  0  0  0  0  0  0  0
    4.2690    2.1550    0.0000 H   0  0  0  0  0  0  0  0  0  0  0  0
    1.4631    2.1550    0.0000 H   0  0  0  0  0  0  0  0  0  0  0  0
    6.6592    4.1550    0.0000 H   0  0  0  0  0  0  0  0  0  0  0  0
    7.6636    2.8700    0.0000 H   0  0  0  0  0  0  0  0  0  0  0  0
    8.4607    2.8700    0.0000 H   0  0  0  0  0  0  0  0  0  0  0  0
    6.9841    5.4276    0.0000 H   0  0  0  0  0  0  0  0  0  0  0  0
    6.5856    4.7373    0.0000 H   0  0  0  0  0  0  0  0  0  0  0  0
    9.1403    3.2624    0.0000 H   0  0  0  0  0  0  0  0  0  0  0  0
    9.5388    3.9527    0.0000 H   0  0  0  0  0  0  0  0  0  0  0  0
    8.4607    5.8200    0.0000 H   0  0  0  0  0  0  0  0  0  0  0  0
    7.6636    5.8200    0.0000 H   0  0  0  0  0  0  0  0  0  0  0  0
    6.3301    2.7250    0.0000 H   0  0  0  0  0  0  0  0  0  0  0  0
    2.3291    3.6550    0.0000 H   0  0  0  0  0  0  0  0  0  0  0  0
    5.7741    0.3081    0.0000 H   0  0  0  0  0  0  0  0  0  0  0  0
    6.0010    1.1550    0.0000 H   0  0  0  0  0  0  0  0  0  0  0  0
    5.1541    1.3819    0.0000 H   0  0  0  0  0  0  0  0  0  0  0  0
    6.5422    4.7624    0.0000 H   0  0  0  0  0  0  0  0  0  0  0  0
    6.9407    5.4527    0.0000 H   0  0  0  0  0  0  0  0  0  0  0  0
    6.9501    6.3450    0.0000 H   0  0  0  0  0  0  0  0  0  0  0  0
    6.3301    6.9650    0.0000 H   0  0  0  0  0  0  0  0  0  0  0  0
    5.7101    6.3450    0.0000 H   0  0  0  0  0  0  0  0  0  0  0  0
    2.3291    6.6550    0.0000 H   0  0  0  0  0  0  0  0  0  0  0  0
    3.4030    6.6550    0.0000 H   0  0  0  0  0  0  0  0  0  0  0  0
  1 23  1  0  0  0  0
  1 35  1  0  0  0  0
  2 31  1  0  0  0  0
  2 32  1  0  0  0  0
  3 39  2  0  0  0  0
  4 12  1  0  0  0  0
  4 17  1  0  0  0  0
  4 18  1  0  0  0  0
  5 15  1  0  0  0  0
  5 16  1  0  0  0  0
  5 21  1  0  0  0  0
  6 19  1  0  0  0  0
  6 20  1  0  0  0  0
  6 22  1  0  0  0  0
  7 28  1  0  0  0  0
  7 33  1  0  0  0  0
  7 73  1  0  0  0  0
  8 27  1  0  0  0  0
  8 34  1  0  0  0  0
  8 74  1  0  0  0  0
  9 33  1  0  0  0  0
  9 34  2  0  0  0  0
 10 36  1  0  0  0  0
 10 37  2  0  0  0  0
 11 39  1  0  0  0  0
 11 83  1  0  0  0  0
 11 84  1  0  0  0  0
 12 13  1  0  0  0  0
 12 14  1  0  0  0  0
 12 41  1  0  0  0  0
 13 15  1  0  0  0  0
 13 42  1  0  0  0  0
 13 43  1  0  0  0  0
 14 16  1  0  0  0  0
 14 44  1  0  0  0  0
 14 45  1  0  0  0  0
 15 46  1  0  0  0  0
 15 47  1  0  0  0  0
 16 48  1  0  0  0  0
 16 49  1  0  0  0  0
 17 19  1  0  0  0  0
 17 50  1  0  0  0  0
 17 51  1  0  0  0  0
 18 20  1  0  0  0  0
 18 52  1  0  0  0  0
 18 53  1  0  0  0  0
 19 54  1  0  0  0  0
 19 55  1  0  0  0  0
 20 56  1  0  0  0  0
 20 57  1  0  0  0  0
 21 23  2  0  0  0  0
 21 24  1  0  0  0  0
 22 58  1  0  0  0  0
 22 59  1  0  0  0  0
 22 60  1  0  0  0  0
 23 25  1  0  0  0  0
 24 26  2  0  0  0  0
 24 61  1  0  0  0  0
 25 27  2  0  0  0  0
 25 62  1  0  0  0  0
 26 27  1  0  0  0  0
 26 63  1  0  0  0  0
 28 29  1  0  0  0  0
 28 30  1  0  0  0  0
 28 64  1  0  0  0  0
 29 31  1  0  0  0  0
 29 65  1  0  0  0  0
 29 66  1  0  0  0  0
 30 32  1  0  0  0  0
 30 67  1  0  0  0  0
 30 68  1  0  0  0  0
 31 69  1  0  0  0  0
 31 70  1  0  0  0  0
 32 71  1  0  0  0  0
 32 72  1  0  0  0  0
 33 36  2  0  0  0  0
 34 37  1  0  0  0  0
 35 75  1  0  0  0  0
 35 76  1  0  0  0  0
 35 77  1  0  0  0  0
 36 38  1  0  0  0  0
 37 39  1  0  0  0  0
 38 40  1  0  0  0  0
 38 78  1  0  0  0  0
 38 79  1  0  0  0  0
 40 80  1  0  0  0  0
 40 81  1  0  0  0  0
 40 82  1  0  0  0  0
M  END
> <PUBCHEM_COMPOUND_CID>
49803313

> <PUBCHEM_COMPOUND_CANONICALIZED>
1

> <PUBCHEM_CACTVS_COMPLEXITY>
785

> <PUBCHEM_CACTVS_HBOND_ACCEPTOR>
10

> <PUBCHEM_CACTVS_HBOND_DONOR>
3

> <PUBCHEM_CACTVS_ROTATABLE_BOND>
9

> <PUBCHEM_CACTVS_SUBSKEYS>
AAADcfB78AAAAAAAAAAAAAAAAAAAAAAAAAA8WLEiAAAAAAABwAAAHgAQAAAACCzhlgYz9pPIFACoASdydACCiC0nMiAJmIG/fMiOZmrE+buXMKhu0BvY6GeQUAMAAACAAgAAEAAAAQAEAAAgAAAAAAAAAA==

> <PUBCHEM_IUPAC_OPENEYE_NAME>
6-ethyl-3-[3-methoxy-4-[4-(4-methylpiperazin-1-yl)-1-piperidyl]anilino]-5-(tetrahydropyran-4-ylamino)pyrazine-2-carboxamide

> <PUBCHEM_IUPAC_CAS_NAME>
6-ethyl-3-[3-methoxy-4-[4-(4-methyl-1-piperazinyl)-1-piperidinyl]anilino]-5-(4-oxanylamino)-2-pyrazinecarboxamide

> <PUBCHEM_IUPAC_NAME_MARKUP>
6-ethyl-3-[3-methoxy-4-[4-(4-methylpiperazin-1-yl)piperidin-1-yl]anilino]-5-(oxan-4-ylamino)pyrazine-2-carboxamide

> <PUBCHEM_IUPAC_NAME>
6-ethyl-3-[3-methoxy-4-[4-(4-methylpiperazin-1-yl)piperidin-1-yl]anilino]-5-(oxan-4-ylamino)pyrazine-2-carboxamide

> <PUBCHEM_IUPAC_SYSTEMATIC_NAME>
6-ethyl-3-[[3-methoxy-4-[4-(4-methylpiperazin-1-yl)piperidin-1-yl]phenyl]amino]-5-(oxan-4-ylamino)pyrazine-2-carboxamide

> <PUBCHEM_IUPAC_TRADITIONAL_NAME>
6-ethyl-3-[3-methoxy-4-[4-(4-methylpiperazino)piperidino]anilino]-5-(tetrahydropyran-4-ylamino)pyrazinamide

> <PUBCHEM_IUPAC_INCHI>
InChI=1S/C29H44N8O3/c1-4-23-28(31-20-9-17-40-18-10-20)34-29(26(33-23)27(30)38)32-21-5-6-24(25(19-21)39-3)37-11-7-22(8-12-37)36-15-13-35(2)14-16-36/h5-6,19-20,22H,4,7-18H2,1-3H3,(H2,30,38)(H2,31,32,34)

> <PUBCHEM_IUPAC_INCHIKEY>
GYQYAJJFPNQOOW-UHFFFAOYSA-N

> <PUBCHEM_XLOGP3_AA>
3.5

> <PUBCHEM_EXACT_MASS>
552.35363730

> <PUBCHEM_MOLECULAR_FORMULA>
C29H44N8O3

> <PUBCHEM_MOLECULAR_WEIGHT>
552.7

> <PUBCHEM_OPENEYE_CAN_SMILES>
CCC1=C(N=C(C(=N1)C(=O)N)NC2=CC(=C(C=C2)N3CCC(CC3)N4CCN(CC4)C)OC)NC5CCOCC5

> <PUBCHEM_OPENEYE_ISO_SMILES>
CCC1=C(N=C(C(=N1)C(=O)N)NC2=CC(=C(C=C2)N3CCC(CC3)N4CCN(CC4)C)OC)NC5CCOCC5

> <PUBCHEM_CACTVS_TPSA>
121

> <PUBCHEM_MONOISOTOPIC_WEIGHT>
552.35363730

> <PUBCHEM_TOTAL_CHARGE>
0

> <PUBCHEM_HEAVY_ATOM_COUNT>
40

> <PUBCHEM_ATOM_DEF_STEREO_COUNT>
0

> <PUBCHEM_ATOM_UDEF_STEREO_COUNT>
0

> <PUBCHEM_BOND_DEF_STEREO_COUNT>
0

> <PUBCHEM_BOND_UDEF_STEREO_COUNT>
0

> <PUBCHEM_ISOTOPIC_ATOM_COUNT>
0

> <PUBCHEM_COMPONENT_COUNT>
1

> <PUBCHEM_CACTVS_TAUTO_COUNT>
-1

> <PUBCHEM_COORDINATE_TYPE>
1
5
255

> <PUBCHEM_BONDANNOTATIONS>
10  36  8
10  37  8
21  23  8
21  24  8
23  25  8
24  26  8
25  27  8
26  27  8
33  36  8
34  37  8
9  33  8
9  34  8

$$$$
129073603
  -OEChem-11282412102D

 71 75  0     1  0  0  0  0  0999 V2000
   12.0799    3.5192    0.0000 F   0  0  0  0  0  0  0  0  0  0  0  0
    3.2320    3.7409    0.0000 O   0  0  0  0  0  0  0  0  0  0  0  0
    3.7320    4.6069    0.0000 O   0  0  0  0  0  0  0  0  0  0  0  0
    5.2320    3.7409    0.0000 N   0  0  0  0  0  0  0  0  0  0  0  0
    2.8660   -0.6251    0.0000 N   0  0  0  0  0  0  0  0  0  0  0  0
    4.5981   -0.6251    0.0000 N   0  0  0  0  0  0  0  0  0  0  0  0
    5.4641   -2.1251    0.0000 N   0  0  0  0  0  0  0  0  0  0  0  0
    8.2320    3.7409    0.0000 N   0  0  0  0  0  0  0  0  0  0  0  0
    9.7320    4.6069    0.0000 N   0  0  0  0  0  0  0  0  0  0  0  0
    6.2731   -3.7129    0.0000 N   0  0  0  0  0  0  0  0  0  0  0  0
    5.9641   -4.6640    0.0000 N   0  0  0  0  0  0  0  0  0  0  0  0
   10.3198    5.4160    0.0000 N   0  0  0  0  0  0  0  0  0  0  0  0
    3.7320    2.8749    0.0000 C   0  0  0  0  0  0  0  0  0  0  0  0
    3.7320    0.8749    0.0000 C   0  0  0  0  0  0  0  0  0  0  0  0
    2.8660    2.3749    0.0000 C   0  0  0  0  0  0  0  0  0  0  0  0
    4.5981    2.3749    0.0000 C   0  0  0  0  0  0  0  0  0  0  0  0
    2.8660    1.3749    0.0000 C   0  0  0  0  0  0  0  0  0  0  0  0
    4.5981    1.3749    0.0000 C   0  0  0  0  0  0  0  0  0  0  0  0
    4.2320    3.7409    0.0000 C   0  0  0  0  0  0  0  0  0  0  0  0
    3.7320   -0.1251    0.0000 C   0  0  0  0  0  0  0  0  0  0  0  0
    5.7320    4.6069    0.0000 C   0  0  2  0  0  0  0  0  0  0  0  0
    2.2320    3.7409    0.0000 C   0  0  0  0  0  0  0  0  0  0  0  0
    2.8660   -1.6251    0.0000 C   0  0  0  0  0  0  0  0  0  0  0  0
    4.5981   -1.6251    0.0000 C   0  0  0  0  0  0  0  0  0  0  0  0
    6.7320    4.6069    0.0000 C   0  0  0  0  0  0  0  0  0  0  0  0
    5.2320    5.4730    0.0000 C   0  0  0  0  0  0  0  0  0  0  0  0
    3.7320   -2.1251    0.0000 C   0  0  0  0  0  0  0  0  0  0  0  0
    2.0000   -2.1251    0.0000 C   0  0  0  0  0  0  0  0  0  0  0  0
    7.2320    5.4730    0.0000 C   0  0  0  0  0  0  0  0  0  0  0  0
    7.2320    3.7409    0.0000 C   0  0  0  0  0  0  0  0  0  0  0  0
    8.2320    5.4730    0.0000 C   0  0  0  0  0  0  0  0  0  0  0  0
    5.4641   -3.1251    0.0000 C   0  0  0  0  0  0  0  0  0  0  0  0
    8.7320    4.6069    0.0000 C   0  0  0  0  0  0  0  0  0  0  0  0
    4.6551   -3.7129    0.0000 C   0  0  0  0  0  0  0  0  0  0  0  0
    4.9641   -4.6640    0.0000 C   0  0  0  0  0  0  0  0  0  0  0  0
   10.3198    3.7979    0.0000 C   0  0  0  0  0  0  0  0  0  0  0  0
    4.3763   -5.4730    0.0000 C   0  0  0  0  0  0  0  0  0  0  0  0
   11.2709    4.1069    0.0000 C   0  0  0  0  0  0  0  0  0  0  0  0
   11.2709    5.1069    0.0000 C   0  0  0  0  0  0  0  0  0  0  0  0
    4.2690    0.5649    0.0000 H   0  0  0  0  0  0  0  0  0  0  0  0
    2.6540    2.9575    0.0000 H   0  0  0  0  0  0  0  0  0  0  0  0
    2.2554    2.2672    0.0000 H   0  0  0  0  0  0  0  0  0  0  0  0
    5.2087    2.2672    0.0000 H   0  0  0  0  0  0  0  0  0  0  0  0
    4.8101    2.9575    0.0000 H   0  0  0  0  0  0  0  0  0  0  0  0
    2.2554    1.4826    0.0000 H   0  0  0  0  0  0  0  0  0  0  0  0
    2.6540    0.7923    0.0000 H   0  0  0  0  0  0  0  0  0  0  0  0
    4.8101    0.7923    0.0000 H   0  0  0  0  0  0  0  0  0  0  0  0
    5.2087    1.4826    0.0000 H   0  0  0  0  0  0  0  0  0  0  0  0
    5.5420    3.2040    0.0000 H   0  0  0  0  0  0  0  0  0  0  0  0
    5.1120    4.6069    0.0000 H   0  0  0  0  0  0  0  0  0  0  0  0
    2.2320    4.3609    0.0000 H   0  0  0  0  0  0  0  0  0  0  0  0
    1.6120    3.7409    0.0000 H   0  0  0  0  0  0  0  0  0  0  0  0
    2.2320    3.1209    0.0000 H   0  0  0  0  0  0  0  0  0  0  0  0
    5.7690    5.7830    0.0000 H   0  0  0  0  0  0  0  0  0  0  0  0
    4.9220    6.0099    0.0000 H   0  0  0  0  0  0  0  0  0  0  0  0
    4.6951    5.1630    0.0000 H   0  0  0  0  0  0  0  0  0  0  0  0
    3.7320   -2.7451    0.0000 H   0  0  0  0  0  0  0  0  0  0  0  0
    1.6900   -1.5882    0.0000 H   0  0  0  0  0  0  0  0  0  0  0  0
    1.4631   -2.4351    0.0000 H   0  0  0  0  0  0  0  0  0  0  0  0
    2.3100   -2.6620    0.0000 H   0  0  0  0  0  0  0  0  0  0  0  0
    6.0010   -1.8151    0.0000 H   0  0  0  0  0  0  0  0  0  0  0  0
    6.9220    6.0099    0.0000 H   0  0  0  0  0  0  0  0  0  0  0  0
    6.9220    3.2040    0.0000 H   0  0  0  0  0  0  0  0  0  0  0  0
    8.5420    6.0099    0.0000 H   0  0  0  0  0  0  0  0  0  0  0  0
    4.0654   -3.5213    0.0000 H   0  0  0  0  0  0  0  0  0  0  0  0
    6.3285   -5.1655    0.0000 H   0  0  0  0  0  0  0  0  0  0  0  0
   10.1282    3.2083    0.0000 H   0  0  0  0  0  0  0  0  0  0  0  0
    3.8747   -5.1085    0.0000 H   0  0  0  0  0  0  0  0  0  0  0  0
    4.0119   -5.9746    0.0000 H   0  0  0  0  0  0  0  0  0  0  0  0
    4.8779   -5.8374    0.0000 H   0  0  0  0  0  0  0  0  0  0  0  0
   11.7725    5.4714    0.0000 H   0  0  0  0  0  0  0  0  0  0  0  0
  1 38  1  0  0  0  0
  2 13  1  0  0  0  0
  2 22  1  0  0  0  0
  3 19  2  0  0  0  0
  4 19  1  0  0  0  0
 21  4  1  1  0  0  0
  4 49  1  0  0  0  0
  5 20  2  0  0  0  0
  5 23  1  0  0  0  0
  6 20  1  0  0  0  0
  6 24  2  0  0  0  0
  7 24  1  0  0  0  0
  7 32  1  0  0  0  0
  7 61  1  0  0  0  0
  8 30  1  0  0  0  0
  8 33  2  0  0  0  0
  9 12  1  0  0  0  0
  9 33  1  0  0  0  0
  9 36  1  0  0  0  0
 10 11  1  0  0  0  0
 10 32  2  0  0  0  0
 11 35  1  0  0  0  0
 11 66  1  0  0  0  0
 12 39  2  0  0  0  0
 13 15  1  0  0  0  0
 13 16  1  0  0  0  0
 13 19  1  0  0  0  0
 14 17  1  0  0  0  0
 14 18  1  0  0  0  0
 14 20  1  0  0  0  0
 14 40  1  0  0  0  0
 15 17  1  0  0  0  0
 15 41  1  0  0  0  0
 15 42  1  0  0  0  0
 16 18  1  0  0  0  0
 16 43  1  0  0  0  0
 16 44  1  0  0  0  0
 17 45  1  0  0  0  0
 17 46  1  0  0  0  0
 18 47  1  0  0  0  0
 18 48  1  0  0  0  0
 21 25  1  0  0  0  0
 21 26  1  0  0  0  0
 21 50  1  0  0  0  0
 22 51  1  0  0  0  0
 22 52  1  0  0  0  0
 22 53  1  0  0  0  0
 23 27  2  0  0  0  0
 23 28  1  0  0  0  0
 24 27  1  0  0  0  0
 25 29  1  0  0  0  0
 25 30  2  0  0  0  0
 26 54  1  0  0  0  0
 26 55  1  0  0  0  0
 26 56  1  0  0  0  0
 27 57  1  0  0  0  0
 28 58  1  0  0  0  0
 28 59  1  0  0  0  0
 28 60  1  0  0  0  0
 29 31  2  0  0  0  0
 29 62  1  0  0  0  0
 30 63  1  0  0  0  0
 31 33  1  0  0  0  0
 31 64  1  0  0  0  0
 32 34  1  0  0  0  0
 34 35  2  0  0  0  0
 34 65  1  0  0  0  0
 35 37  1  0  0  0  0
 36 38  2  0  0  0  0
 36 67  1  0  0  0  0
 37 68  1  0  0  0  0
 37 69  1  0  0  0  0
 37 70  1  0  0  0  0
 38 39  1  0  0  0  0
 39 71  1  0  0  0  0
M  END
> <PUBCHEM_COMPOUND_CID>
129073603

> <PUBCHEM_COMPOUND_CANONICALIZED>
1

> <PUBCHEM_CACTVS_COMPLEXITY>
816

> <PUBCHEM_CACTVS_HBOND_ACCEPTOR>
9

> <PUBCHEM_CACTVS_HBOND_DONOR>
3

> <PUBCHEM_CACTVS_ROTATABLE_BOND>
8

> <PUBCHEM_CACTVS_SUBSKEYS>
AAADcfB78QAAAAAAAAAAAAAAAAAAAWLAAAA8WIAAAAAAAAAB/gAAHwAYAAAADWzBnw4/sJbrFACqAzd3dAKShCsxgqAd+aF4ZJiKKPLA2dWFpAh8ngLYyCeY2AKOAAAAAAAAAADAAAAAAAAAAAAAAAAAAA==

> <PUBCHEM_IUPAC_OPENEYE_NAME>
N-[(1S)-1-[6-(4-fluoropyrazol-1-yl)-3-pyridyl]ethyl]-1-methoxy-4-[4-methyl-6-[(5-methyl-1H-pyrazol-3-yl)amino]pyrimidin-2-yl]cyclohexanecarboxamide

> <PUBCHEM_IUPAC_CAS_NAME>
N-[(1S)-1-[6-(4-fluoro-1-pyrazolyl)-3-pyridinyl]ethyl]-1-methoxy-4-[4-methyl-6-[(5-methyl-1H-pyrazol-3-yl)amino]-2-pyrimidinyl]-1-cyclohexanecarboxamide

> <PUBCHEM_IUPAC_NAME_MARKUP>
<I>N</I>-[(1<I>S</I>)-1-[6-(4-fluoropyrazol-1-yl)pyridin-3-yl]ethyl]-1-methoxy-4-[4-methyl-6-[(5-methyl-1<I>H</I>-pyrazol-3-yl)amino]pyrimidin-2-yl]cyclohexane-1-carboxamide

> <PUBCHEM_IUPAC_NAME>
N-[(1S)-1-[6-(4-fluoropyrazol-1-yl)pyridin-3-yl]ethyl]-1-methoxy-4-[4-methyl-6-[(5-methyl-1H-pyrazol-3-yl)amino]pyrimidin-2-yl]cyclohexane-1-carboxamide

> <PUBCHEM_IUPAC_SYSTEMATIC_NAME>
N-[(1S)-1-[6-(4-fluoranylpyrazol-1-yl)pyridin-3-yl]ethyl]-1-methoxy-4-[4-methyl-6-[(5-methyl-1H-pyrazol-3-yl)amino]pyrimidin-2-yl]cyclohexane-1-carboxamide

> <PUBCHEM_IUPAC_TRADITIONAL_NAME>
N-[(1S)-1-[6-(4-fluoropyrazol-1-yl)-3-pyridyl]ethyl]-1-methoxy-4-[4-methyl-6-[(5-methyl-1H-pyrazol-3-yl)amino]pyrimidin-2-yl]cyclohexanecarboxamide

> <PUBCHEM_IUPAC_INCHI>
InChI=1S/C27H32FN9O2/c1-16-11-22(33-23-12-17(2)35-36-23)34-25(31-16)19-7-9-27(39-4,10-8-19)26(38)32-18(3)20-5-6-24(29-13-20)37-15-21(28)14-30-37/h5-6,11-15,18-19H,7-10H2,1-4H3,(H,32,38)(H2,31,33,34,35,36)/t18-,19?,27?/m0/s1

> <PUBCHEM_IUPAC_INCHIKEY>
GBLBJPZSROAGMF-SIYOEGHHSA-N

> <PUBCHEM_XLOGP3_AA>
3.1

> <PUBCHEM_EXACT_MASS>
533.26629946

> <PUBCHEM_MOLECULAR_FORMULA>
C27H32FN9O2

> <PUBCHEM_MOLECULAR_WEIGHT>
533.6

> <PUBCHEM_OPENEYE_CAN_SMILES>
CC1=CC(=NN1)NC2=NC(=NC(=C2)C)C3CCC(CC3)(C(=O)NC(C)C4=CN=C(C=C4)N5C=C(C=N5)F)OC

> <PUBCHEM_OPENEYE_ISO_SMILES>
CC1=CC(=NN1)NC2=NC(=NC(=C2)C)C3CCC(CC3)(C(=O)N[C@@H](C)C4=CN=C(C=C4)N5C=C(C=N5)F)OC

> <PUBCHEM_CACTVS_TPSA>
136

> <PUBCHEM_MONOISOTOPIC_WEIGHT>
533.26629946

> <PUBCHEM_TOTAL_CHARGE>
0

> <PUBCHEM_HEAVY_ATOM_COUNT>
39

> <PUBCHEM_ATOM_DEF_STEREO_COUNT>
1

> <PUBCHEM_ATOM_UDEF_STEREO_COUNT>
0

> <PUBCHEM_BOND_DEF_STEREO_COUNT>
0

> <PUBCHEM_BOND_UDEF_STEREO_COUNT>
0

> <PUBCHEM_ISOTOPIC_ATOM_COUNT>
0

> <PUBCHEM_COMPONENT_COUNT>
1

> <PUBCHEM_CACTVS_TAUTO_COUNT>
-1

> <PUBCHEM_COORDINATE_TYPE>
1
5
255

> <PUBCHEM_BONDANNOTATIONS>
10  11  8
10  32  8
11  35  8
12  39  8
23  27  8
24  27  8
25  29  8
25  30  8
29  31  8
31  33  8
32  34  8
34  35  8
36  38  8
38  39  8
21  4  5
5  20  8
5  23  8
6  20  8
6  24  8
8  30  8
8  33  8
9  12  8
9  36  8

$$$$
137321960
  -OEChem-11282412102D

 80 81  0     0  0  0  0  0  0999 V2000
    6.2079    0.6200    0.0000 F   0  0  0  0  0  0  0  0  0  0  0  0
   11.4040    3.6200    0.0000 O   0  0  0  0  0  0  0  0  0  0  0  0
   11.4040    6.6200    0.0000 O   0  0  0  0  0  0  0  0  0  0  0  0
   10.7469   11.8590    0.0000 O   0  0  0  0  0  0  0  0  0  0  0  0
    7.2828   13.8590    0.0000 O   0  0  0  0  0  0  0  0  0  0  0  0
    9.0148   11.8590    0.0000 O   0  0  0  0  0  0  0  0  0  0  0  0
    8.1488   12.3590    0.0000 O   0  0  0  0  0  0  0  0  0  0  0  0
    0.5369    5.7402    0.0000 O   0  0  0  0  0  0  0  0  0  0  0  0
    0.5369    8.2390    0.0000 O   0  0  0  0  0  0  0  0  0  0  0  0
    6.2079    2.6200    0.0000 N   0  0  0  0  0  0  0  0  0  0  0  0
    4.4758    3.6200    0.0000 N   0  0  0  0  0  0  0  0  0  0  0  0
    9.6720    0.6200    0.0000 N   0  0  0  0  0  0  0  0  0  0  0  0
   11.4040    0.6200    0.0000 N   0  0  0  0  0  0  0  0  0  0  0  0
   10.5380    2.1200    0.0000 N   0  0  0  0  0  0  0  0  0  0  0  0
   13.2163    0.8153    0.0000 N   0  0  0  0  0  0  0  0  0  0  0  0
    9.6720    6.6200    0.0000 N   0  0  0  0  0  0  0  0  0  0  0  0
    5.3418    2.1200    0.0000 C   0  0  0  0  0  0  0  0  0  0  0  0
    6.2079    3.6200    0.0000 C   0  0  0  0  0  0  0  0  0  0  0  0
    4.4758    2.6200    0.0000 C   0  0  0  0  0  0  0  0  0  0  0  0
    5.3418    4.1200    0.0000 C   0  0  0  0  0  0  0  0  0  0  0  0
    7.0739    2.1200    0.0000 C   0  0  0  0  0  0  0  0  0  0  0  0
    3.6098    4.1200    0.0000 C   0  0  0  0  0  0  0  0  0  0  0  0
    7.0739    1.1200    0.0000 C   0  0  0  0  0  0  0  0  0  0  0  0
    7.9399    2.6200    0.0000 C   0  0  0  0  0  0  0  0  0  0  0  0
    7.9399    0.6200    0.0000 C   0  0  0  0  0  0  0  0  0  0  0  0
    8.8060    2.1200    0.0000 C   0  0  0  0  0  0  0  0  0  0  0  0
    8.8060    1.1200    0.0000 C   0  0  0  0  0  0  0  0  0  0  0  0
   10.5380    1.1200    0.0000 C   0  0  0  0  0  0  0  0  0  0  0  0
   12.2701    1.1200    0.0000 C   0  0  0  0  0  0  0  0  0  0  0  0
   12.2701    2.1200    0.0000 C   0  0  0  0  0  0  0  0  0  0  0  0
   11.4040    2.6200    0.0000 C   0  0  0  0  0  0  0  0  0  0  0  0
   13.2163    2.4247    0.0000 C   0  0  0  0  0  0  0  0  0  0  0  0
   13.7999    1.6200    0.0000 C   0  0  0  0  0  0  0  0  0  0  0  0
   10.5380    4.1200    0.0000 C   0  0  0  0  0  0  0  0  0  0  0  0
   10.5380    5.1200    0.0000 C   0  0  0  0  0  0  0  0  0  0  0  0
    9.6720    3.6200    0.0000 C   0  0  0  0  0  0  0  0  0  0  0  0
    9.6720    5.6200    0.0000 C   0  0  0  0  0  0  0  0  0  0  0  0
    8.8060    4.1200    0.0000 C   0  0  0  0  0  0  0  0  0  0  0  0
    8.8060    5.1200    0.0000 C   0  0  0  0  0  0  0  0  0  0  0  0
   10.5380    7.1200    0.0000 C   0  0  0  0  0  0  0  0  0  0  0  0
   10.5380    8.1200    0.0000 C   0  0  0  0  0  0  0  0  0  0  0  0
   11.4040    8.6200    0.0000 C   0  0  0  0  0  0  0  0  0  0  0  0
    9.8809   13.3590    0.0000 C   0  0  0  0  0  0  0  0  0  0  0  0
    9.0148   13.8590    0.0000 C   0  0  0  0  0  0  0  0  0  0  0  0
    9.8809   12.3590    0.0000 C   0  0  0  0  0  0  0  0  0  0  0  0
    8.1488   13.3590    0.0000 C   0  0  0  0  0  0  0  0  0  0  0  0
    4.9433    1.6450    0.0000 H   0  0  0  0  0  0  0  0  0  0  0  0
    5.7404    1.6450    0.0000 H   0  0  0  0  0  0  0  0  0  0  0  0
    6.8185    3.5123    0.0000 H   0  0  0  0  0  0  0  0  0  0  0  0
    6.4199    4.2026    0.0000 H   0  0  0  0  0  0  0  0  0  0  0  0
    3.8652    2.7277    0.0000 H   0  0  0  0  0  0  0  0  0  0  0  0
    4.2638    2.0374    0.0000 H   0  0  0  0  0  0  0  0  0  0  0  0
    5.7404    4.5950    0.0000 H   0  0  0  0  0  0  0  0  0  0  0  0
    4.9433    4.5950    0.0000 H   0  0  0  0  0  0  0  0  0  0  0  0
    3.9198    4.6569    0.0000 H   0  0  0  0  0  0  0  0  0  0  0  0
    3.0729    4.4300    0.0000 H   0  0  0  0  0  0  0  0  0  0  0  0
    3.2998    3.5831    0.0000 H   0  0  0  0  0  0  0  0  0  0  0  0
    7.9399    3.2400    0.0000 H   0  0  0  0  0  0  0  0  0  0  0  0
    7.9399    0.0000    0.0000 H   0  0  0  0  0  0  0  0  0  0  0  0
    9.3429    2.4300    0.0000 H   0  0  0  0  0  0  0  0  0  0  0  0
    9.6720    0.0000    0.0000 H   0  0  0  0  0  0  0  0  0  0  0  0
   13.4089    0.2259    0.0000 H   0  0  0  0  0  0  0  0  0  0  0  0
   13.4089    3.0140    0.0000 H   0  0  0  0  0  0  0  0  0  0  0  0
   14.4199    1.6200    0.0000 H   0  0  0  0  0  0  0  0  0  0  0  0
   11.0749    5.4300    0.0000 H   0  0  0  0  0  0  0  0  0  0  0  0
    9.6720    3.0000    0.0000 H   0  0  0  0  0  0  0  0  0  0  0  0
    8.2690    3.8100    0.0000 H   0  0  0  0  0  0  0  0  0  0  0  0
    8.2690    5.4300    0.0000 H   0  0  0  0  0  0  0  0  0  0  0  0
    9.1350    6.9300    0.0000 H   0  0  0  0  0  0  0  0  0  0  0  0
   10.0011    8.4300    0.0000 H   0  0  0  0  0  0  0  0  0  0  0  0
   11.9410    8.3100    0.0000 H   0  0  0  0  0  0  0  0  0  0  0  0
   11.4040    9.2400    0.0000 H   0  0  0  0  0  0  0  0  0  0  0  0
   10.4178   13.6690    0.0000 H   0  0  0  0  0  0  0  0  0  0  0  0
    9.0148   14.4790    0.0000 H   0  0  0  0  0  0  0  0  0  0  0  0
   10.7469   11.2390    0.0000 H   0  0  0  0  0  0  0  0  0  0  0  0
    6.7458   13.5490    0.0000 H   0  0  0  0  0  0  0  0  0  0  0  0
    1.0739    6.0502    0.0000 H   0  0  0  0  0  0  0  0  0  0  0  0
    0.0000    6.0502    0.0000 H   0  0  0  0  0  0  0  0  0  0  0  0
    1.0739    8.5490    0.0000 H   0  0  0  0  0  0  0  0  0  0  0  0
    0.0000    8.5490    0.0000 H   0  0  0  0  0  0  0  0  0  0  0  0
  1 23  1  0  0  0  0
  2 31  1  0  0  0  0
  2 34  1  0  0  0  0
  3 40  2  0  0  0  0
  4 45  1  0  0  0  0
  4 75  1  0  0  0  0
  5 46  1  0  0  0  0
  5 76  1  0  0  0  0
  6 45  2  0  0  0  0
  7 46  2  0  0  0  0
  8 77  1  0  0  0  0
  8 78  1  0  0  0  0
  9 79  1  0  0  0  0
  9 80  1  0  0  0  0
 10 17  1  0  0  0  0
 10 18  1  0  0  0  0
 10 21  1  0  0  0  0
 11 19  1  0  0  0  0
 11 20  1  0  0  0  0
 11 22  1  0  0  0  0
 12 27  1  0  0  0  0
 12 28  1  0  0  0  0
 12 61  1  0  0  0  0
 13 28  2  0  0  0  0
 13 29  1  0  0  0  0
 14 28  1  0  0  0  0
 14 31  2  0  0  0  0
 15 29  1  0  0  0  0
 15 33  1  0  0  0  0
 15 62  1  0  0  0  0
 16 37  1  0  0  0  0
 16 40  1  0  0  0  0
 16 69  1  0  0  0  0
 17 19  1  0  0  0  0
 17 47  1  0  0  0  0
 17 48  1  0  0  0  0
 18 20  1  0  0  0  0
 18 49  1  0  0  0  0
 18 50  1  0  0  0  0
 19 51  1  0  0  0  0
 19 52  1  0  0  0  0
 20 53  1  0  0  0  0
 20 54  1  0  0  0  0
 21 23  2  0  0  0  0
 21 24  1  0  0  0  0
 22 55  1  0  0  0  0
 22 56  1  0  0  0  0
 22 57  1  0  0  0  0
 23 25  1  0  0  0  0
 24 26  2  0  0  0  0
 24 58  1  0  0  0  0
 25 27  2  0  0  0  0
 25 59  1  0  0  0  0
 26 27  1  0  0  0  0
 26 60  1  0  0  0  0
 29 30  2  0  0  0  0
 30 31  1  0  0  0  0
 30 32  1  0  0  0  0
 32 33  2  0  0  0  0
 32 63  1  0  0  0  0
 33 64  1  0  0  0  0
 34 35  1  0  0  0  0
 34 36  2  0  0  0  0
 35 37  2  0  0  0  0
 35 65  1  0  0  0  0
 36 38  1  0  0  0  0
 36 66  1  0  0  0  0
 37 39  1  0  0  0  0
 38 39  2  0  0  0  0
 38 67  1  0  0  0  0
 39 68  1  0  0  0  0
 40 41  1  0  0  0  0
 41 42  2  0  0  0  0
 41 70  1  0  0  0  0
 42 71  1  0  0  0  0
 42 72  1  0  0  0  0
 43 44  2  0  0  0  0
 43 45  1  0  0  0  0
 43 73  1  0  0  0  0
 44 46  1  0  0  0  0
 44 74  1  0  0  0  0
M  END
> <PUBCHEM_COMPOUND_CID>
137321960

> <PUBCHEM_COMPOUND_CANONICALIZED>
1

> <PUBCHEM_CACTVS_COMPLEXITY>
871

> <PUBCHEM_CACTVS_HBOND_ACCEPTOR>
14

> <PUBCHEM_CACTVS_HBOND_DONOR>
7

> <PUBCHEM_CACTVS_ROTATABLE_BOND>
9

> <PUBCHEM_CACTVS_SUBSKEYS>
AAADcfB7vQAAAAAAAAAAAAAAAAAAAWAAAAA8eIEAAAAAAFgB/AAAHwAQCAAADAzBmww//t/JlgCoAjf3fACCiCmxIqAJ2aA+bNiMbuLE+duePCju1BvI+aewUAMIAACAAgAAAAAAAQAEAAAAAAAAAAAAAA==

> <PUBCHEM_IUPAC_OPENEYE_NAME>
N-[3-[[2-[3-fluoro-4-(4-methylpiperazin-1-yl)anilino]-7H-pyrrolo[2,3-d]pyrimidin-4-yl]oxy]phenyl]prop-2-enamide;maleic acid;dihydrate

> <PUBCHEM_IUPAC_CAS_NAME>
(Z)-2-butenedioic acid;N-[3-[[2-[3-fluoro-4-(4-methyl-1-piperazinyl)anilino]-7H-pyrrolo[2,3-d]pyrimidin-4-yl]oxy]phenyl]-2-propenamide;dihydrate

> <PUBCHEM_IUPAC_NAME_MARKUP>
(<I>Z</I>)-but-2-enedioic acid;<I>N</I>-[3-[[2-[3-fluoro-4-(4-methylpiperazin-1-yl)anilino]-7<I>H</I>-pyrrolo[2,3-d]pyrimidin-4-yl]oxy]phenyl]prop-2-enamide;dihydrate

> <PUBCHEM_IUPAC_NAME>
(Z)-but-2-enedioic acid;N-[3-[[2-[3-fluoro-4-(4-methylpiperazin-1-yl)anilino]-7H-pyrrolo[2,3-d]pyrimidin-4-yl]oxy]phenyl]prop-2-enamide;dihydrate

> <PUBCHEM_IUPAC_SYSTEMATIC_NAME>
(Z)-but-2-enedioic acid;N-[3-[[2-[[3-fluoranyl-4-(4-methylpiperazin-1-yl)phenyl]amino]-7H-pyrrolo[2,3-d]pyrimidin-4-yl]oxy]phenyl]prop-2-enamide;dihydrate

> <PUBCHEM_IUPAC_TRADITIONAL_NAME>
N-[3-[[2-[3-fluoro-4-(4-methylpiperazino)anilino]-7H-pyrrolo[2,3-d]pyrimidin-4-yl]oxy]phenyl]acrylamide;maleic acid;dihydrate

> <PUBCHEM_IUPAC_INCHI>
InChI=1S/C26H26FN7O2.C4H4O4.2H2O/c1-3-23(35)29-17-5-4-6-19(15-17)36-25-20-9-10-28-24(20)31-26(32-25)30-18-7-8-22(21(27)16-18)34-13-11-33(2)12-14-34;5-3(6)1-2-4(7)8;;/h3-10,15-16H,1,11-14H2,2H3,(H,29,35)(H2,28,30,31,32);1-2H,(H,5,6)(H,7,8);2*1H2/b;2-1-;;

> <PUBCHEM_IUPAC_INCHIKEY>
QITOONQVTOGMOJ-IUJXYRIYSA-N

> <PUBCHEM_EXACT_MASS>
639.24528923

> <PUBCHEM_MOLECULAR_FORMULA>
C30H34FN7O8

> <PUBCHEM_MOLECULAR_WEIGHT>
639.6

> <PUBCHEM_OPENEYE_CAN_SMILES>
CN1CCN(CC1)C2=C(C=C(C=C2)NC3=NC4=C(C=CN4)C(=N3)OC5=CC=CC(=C5)NC(=O)C=C)F.C(=CC(=O)O)C(=O)O.O.O

> <PUBCHEM_OPENEYE_ISO_SMILES>
CN1CCN(CC1)C2=C(C=C(C=C2)NC3=NC4=C(C=CN4)C(=N3)OC5=CC=CC(=C5)NC(=O)C=C)F.C(=C\C(=O)O)\C(=O)O.O.O

> <PUBCHEM_CACTVS_TPSA>
175

> <PUBCHEM_MONOISOTOPIC_WEIGHT>
639.24528923

> <PUBCHEM_TOTAL_CHARGE>
0

> <PUBCHEM_HEAVY_ATOM_COUNT>
46

> <PUBCHEM_ATOM_DEF_STEREO_COUNT>
0

> <PUBCHEM_ATOM_UDEF_STEREO_COUNT>
0

> <PUBCHEM_BOND_DEF_STEREO_COUNT>
1

> <PUBCHEM_BOND_UDEF_STEREO_COUNT>
0

> <PUBCHEM_ISOTOPIC_ATOM_COUNT>
0

> <PUBCHEM_COMPONENT_COUNT>
4

> <PUBCHEM_CACTVS_TAUTO_COUNT>
-1

> <PUBCHEM_COORDINATE_TYPE>
1
5
255

> <PUBCHEM_BONDANNOTATIONS>
13  28  8
13  29  8
14  28  8
14  31  8
15  29  8
15  33  8
21  23  8
21  24  8
23  25  8
24  26  8
25  27  8
26  27  8
29  30  8
30  31  8
30  32  8
32  33  8
34  35  8
34  36  8
35  37  8
36  38  8
37  39  8
38  39  8

$$$$
25151352
  -OEChem-11282412102D

 44 47  0     0  0  0  0  0  0999 V2000
    2.0000   -0.9700    0.0000 Cl  0  0  0  0  0  0  0  0  0  0  0  0
   14.9722    2.5918    0.0000 F   0  0  0  0  0  0  0  0  0  0  0  0
   13.7874    3.3640    0.0000 F   0  0  0  0  0  0  0  0  0  0  0  0
   14.1999    1.4070    0.0000 F   0  0  0  0  0  0  0  0  0  0  0  0
    5.5443   -2.7747    0.0000 N   0  0  0  0  0  0  0  0  0  0  0  0
    9.7690    0.6101    0.0000 N   0  0  0  0  0  0  0  0  0  0  0  0
    3.7320   -2.9700    0.0000 N   0  0  0  0  0  0  0  0  0  0  0  0
    8.4798   -0.5466    0.0000 N   0  0  0  0  0  0  0  0  0  0  0  0
   12.3473    2.9236    0.0000 N   0  0  0  0  0  0  0  0  0  0  0  0
    5.5443   -1.1652    0.0000 C   0  0  0  0  0  0  0  0  0  0  0  0
    5.8550   -0.2147    0.0000 C   0  0  0  0  0  0  0  0  0  0  0  0
    4.5981   -1.4700    0.0000 C   0  0  0  0  0  0  0  0  0  0  0  0
    6.8335   -0.0085    0.0000 C   0  0  0  0  0  0  0  0  0  0  0  0
    4.5981   -2.4700    0.0000 C   0  0  0  0  0  0  0  0  0  0  0  0
    6.1279   -1.9700    0.0000 C   0  0  0  0  0  0  0  0  0  0  0  0
    3.7320   -0.9700    0.0000 C   0  0  0  0  0  0  0  0  0  0  0  0
    7.1441    0.9420    0.0000 C   0  0  0  0  0  0  0  0  0  0  0  0
    7.5013   -0.7528    0.0000 C   0  0  0  0  0  0  0  0  0  0  0  0
    8.7905    0.4039    0.0000 C   0  0  0  0  0  0  0  0  0  0  0  0
   10.0796    1.5607    0.0000 C   0  0  0  0  0  0  0  0  0  0  0  0
    8.1226    1.1482    0.0000 C   0  0  0  0  0  0  0  0  0  0  0  0
   11.0582    1.7669    0.0000 C   0  0  0  0  0  0  0  0  0  0  0  0
    2.8660   -1.4700    0.0000 C   0  0  0  0  0  0  0  0  0  0  0  0
    2.8660   -2.4700    0.0000 C   0  0  0  0  0  0  0  0  0  0  0  0
   11.7260    1.0226    0.0000 C   0  0  0  0  0  0  0  0  0  0  0  0
   11.3688    2.7174    0.0000 C   0  0  0  0  0  0  0  0  0  0  0  0
   12.7045    1.2288    0.0000 C   0  0  0  0  0  0  0  0  0  0  0  0
   13.0152    2.1793    0.0000 C   0  0  0  0  0  0  0  0  0  0  0  0
   13.9937    2.3855    0.0000 C   0  0  0  0  0  0  0  0  0  0  0  0
    5.8344    0.4049    0.0000 H   0  0  0  0  0  0  0  0  0  0  0  0
    5.2411   -0.1274    0.0000 H   0  0  0  0  0  0  0  0  0  0  0  0
    6.7479   -1.9700    0.0000 H   0  0  0  0  0  0  0  0  0  0  0  0
    5.7369   -3.3640    0.0000 H   0  0  0  0  0  0  0  0  0  0  0  0
    3.7320   -0.3500    0.0000 H   0  0  0  0  0  0  0  0  0  0  0  0
    6.7301    1.4035    0.0000 H   0  0  0  0  0  0  0  0  0  0  0  0
    7.3087   -1.3421    0.0000 H   0  0  0  0  0  0  0  0  0  0  0  0
   10.0591    2.1803    0.0000 H   0  0  0  0  0  0  0  0  0  0  0  0
    9.4658    1.6480    0.0000 H   0  0  0  0  0  0  0  0  0  0  0  0
    8.3152    1.7376    0.0000 H   0  0  0  0  0  0  0  0  0  0  0  0
   10.1830    0.1487    0.0000 H   0  0  0  0  0  0  0  0  0  0  0  0
    2.3291   -2.7800    0.0000 H   0  0  0  0  0  0  0  0  0  0  0  0
   11.5334    0.4333    0.0000 H   0  0  0  0  0  0  0  0  0  0  0  0
   10.9547    3.1789    0.0000 H   0  0  0  0  0  0  0  0  0  0  0  0
   13.1186    0.7673    0.0000 H   0  0  0  0  0  0  0  0  0  0  0  0
  1 23  1  0  0  0  0
  2 29  1  0  0  0  0
  3 29  1  0  0  0  0
  4 29  1  0  0  0  0
  5 14  1  0  0  0  0
  5 15  1  0  0  0  0
  5 33  1  0  0  0  0
  6 19  1  0  0  0  0
  6 20  1  0  0  0  0
  6 40  1  0  0  0  0
  7 14  1  0  0  0  0
  7 24  2  0  0  0  0
  8 18  1  0  0  0  0
  8 19  2  0  0  0  0
  9 26  1  0  0  0  0
  9 28  2  0  0  0  0
 10 11  1  0  0  0  0
 10 12  1  0  0  0  0
 10 15  2  0  0  0  0
 11 13  1  0  0  0  0
 11 30  1  0  0  0  0
 11 31  1  0  0  0  0
 12 14  2  0  0  0  0
 12 16  1  0  0  0  0
 13 17  1  0  0  0  0
 13 18  2  0  0  0  0
 15 32  1  0  0  0  0
 16 23  2  0  0  0  0
 16 34  1  0  0  0  0
 17 21  2  0  0  0  0
 17 35  1  0  0  0  0
 18 36  1  0  0  0  0
 19 21  1  0  0  0  0
 20 22  1  0  0  0  0
 20 37  1  0  0  0  0
 20 38  1  0  0  0  0
 21 39  1  0  0  0  0
 22 25  1  0  0  0  0
 22 26  2  0  0  0  0
 23 24  1  0  0  0  0
 24 41  1  0  0  0  0
 25 27  2  0  0  0  0
 25 42  1  0  0  0  0
 26 43  1  0  0  0  0
 27 28  1  0  0  0  0
 27 44  1  0  0  0  0
 28 29  1  0  0  0  0
M  END
> <PUBCHEM_COMPOUND_CID>
25151352

> <PUBCHEM_COMPOUND_CANONICALIZED>
1

> <PUBCHEM_CACTVS_COMPLEXITY>
537

> <PUBCHEM_CACTVS_HBOND_ACCEPTOR>
7

> <PUBCHEM_CACTVS_HBOND_DONOR>
2

> <PUBCHEM_CACTVS_ROTATABLE_BOND>
5

> <PUBCHEM_CACTVS_SUBSKEYS>
AAADccB7gYAEAAAAAAAAAAAAAAAAAWAAAAAsWLAAAAAAAFgB/gAAHQIQAAAADArBHzQ9sN7JkACgAzZnZACCgCmxB6AJ2aA4ZpiIKOLB25HEIAhokALIyCcQgMAOgAAAAAAAAAAAAAAAAAAAAAAAAAAAAA==

> <PUBCHEM_IUPAC_OPENEYE_NAME>
5-[(5-chloro-1H-pyrrolo[2,3-b]pyridin-3-yl)methyl]-N-[[6-(trifluoromethyl)-3-pyridyl]methyl]pyridin-2-amine

> <PUBCHEM_IUPAC_CAS_NAME>
5-[(5-chloro-1H-pyrrolo[2,3-b]pyridin-3-yl)methyl]-N-[[6-(trifluoromethyl)-3-pyridinyl]methyl]-2-pyridinamine

> <PUBCHEM_IUPAC_NAME_MARKUP>
5-[(5-chloro-1<I>H</I>-pyrrolo[2,3-b]pyridin-3-yl)methyl]-<I>N</I>-[[6-(trifluoromethyl)pyridin-3-yl]methyl]pyridin-2-amine

> <PUBCHEM_IUPAC_NAME>
5-[(5-chloro-1H-pyrrolo[2,3-b]pyridin-3-yl)methyl]-N-[[6-(trifluoromethyl)pyridin-3-yl]methyl]pyridin-2-amine

> <PUBCHEM_IUPAC_SYSTEMATIC_NAME>
5-[(5-chloranyl-1H-pyrrolo[2,3-b]pyridin-3-yl)methyl]-N-[[6-(trifluoromethyl)pyridin-3-yl]methyl]pyridin-2-amine

> <PUBCHEM_IUPAC_TRADITIONAL_NAME>
[5-[(5-chloro-1H-pyrrolo[2,3-b]pyridin-3-yl)methyl]-2-pyridyl]-[[6-(trifluoromethyl)-3-pyridyl]methyl]amine

> <PUBCHEM_IUPAC_INCHI>
InChI=1S/C20H15ClF3N5/c21-15-6-16-14(10-28-19(16)29-11-15)5-12-2-4-18(26-7-12)27-9-13-1-3-17(25-8-13)20(22,23)24/h1-4,6-8,10-11H,5,9H2,(H,26,27)(H,28,29)

> <PUBCHEM_IUPAC_INCHIKEY>
JGWRKYUXBBNENE-UHFFFAOYSA-N

> <PUBCHEM_XLOGP3_AA>
4.5

> <PUBCHEM_EXACT_MASS>
417.0968077

> <PUBCHEM_MOLECULAR_FORMULA>
C20H15ClF3N5

> <PUBCHEM_MOLECULAR_WEIGHT>
417.8

> <PUBCHEM_OPENEYE_CAN_SMILES>
C1=CC(=NC=C1CC2=CNC3=C2C=C(C=N3)Cl)NCC4=CN=C(C=C4)C(F)(F)F

> <PUBCHEM_OPENEYE_ISO_SMILES>
C1=CC(=NC=C1CC2=CNC3=C2C=C(C=N3)Cl)NCC4=CN=C(C=C4)C(F)(F)F

> <PUBCHEM_CACTVS_TPSA>
66.5

> <PUBCHEM_MONOISOTOPIC_WEIGHT>
417.0968077

> <PUBCHEM_TOTAL_CHARGE>
0

> <PUBCHEM_HEAVY_ATOM_COUNT>
29

> <PUBCHEM_ATOM_DEF_STEREO_COUNT>
0

> <PUBCHEM_ATOM_UDEF_STEREO_COUNT>
0

> <PUBCHEM_BOND_DEF_STEREO_COUNT>
0

> <PUBCHEM_BOND_UDEF_STEREO_COUNT>
0

> <PUBCHEM_ISOTOPIC_ATOM_COUNT>
0

> <PUBCHEM_COMPONENT_COUNT>
1

> <PUBCHEM_CACTVS_TAUTO_COUNT>
-1

> <PUBCHEM_COORDINATE_TYPE>
1
5
255

> <PUBCHEM_BONDANNOTATIONS>
10  12  8
10  15  8
12  14  8
12  16  8
13  17  8
13  18  8
16  23  8
17  21  8
19  21  8
22  25  8
22  26  8
23  24  8
25  27  8
27  28  8
5  14  8
5  15  8
7  14  8
7  24  8
8  18  8
8  19  8
9  26  8
9  28  8

$$$$
151193
  -OEChem-11282412102D

 54 56  0     0  0  0  0  0  0999 V2000
    6.6659    0.6200    0.0000 Cl  0  0  0  0  0  0  0  0  0  0  0  0
    1.1679   12.7519    0.0000 O   0  0  0  0  0  0  0  0  0  0  0  0
    5.4980   12.2519    0.0000 O   0  0  0  0  0  0  0  0  0  0  0  0
    2.0339   11.2519    0.0000 O   0  0  0  0  0  0  0  0  0  0  0  0
    4.6320   13.7519    0.0000 O   0  0  0  0  0  0  0  0  0  0  0  0
    3.2018    2.6200    0.0000 N   0  0  0  0  0  0  0  0  0  0  0  0
    4.0678    5.1200    0.0000 N   0  0  0  0  0  0  0  0  0  0  0  0
    4.0678    4.1200    0.0000 N   0  0  0  0  0  0  0  0  0  0  0  0
    5.7998    8.1200    0.0000 N   0  0  0  0  0  0  0  0  0  0  0  0
    2.3358    5.1200    0.0000 C   0  0  0  0  0  0  0  0  0  0  0  0
    2.3358    4.1200    0.0000 C   0  0  0  0  0  0  0  0  0  0  0  0
    3.2018    5.6200    0.0000 C   0  0  0  0  0  0  0  0  0  0  0  0
    3.2018    6.6200    0.0000 C   0  0  0  0  0  0  0  0  0  0  0  0
    3.2018    3.6200    0.0000 C   0  0  0  0  0  0  0  0  0  0  0  0
    1.4418    5.6547    0.0000 C   0  0  0  0  0  0  0  0  0  0  0  0
    4.0678    7.1200    0.0000 C   0  0  0  0  0  0  0  0  0  0  0  0
    1.4418    3.5853    0.0000 C   0  0  0  0  0  0  0  0  0  0  0  0
    0.5357    5.1408    0.0000 C   0  0  0  0  0  0  0  0  0  0  0  0
    0.5357    4.0992    0.0000 C   0  0  0  0  0  0  0  0  0  0  0  0
    4.0678    2.1200    0.0000 C   0  0  0  0  0  0  0  0  0  0  0  0
    4.0678    8.1200    0.0000 C   0  0  0  0  0  0  0  0  0  0  0  0
    4.9338    6.6200    0.0000 C   0  0  0  0  0  0  0  0  0  0  0  0
    4.0678    1.1200    0.0000 C   0  0  0  0  0  0  0  0  0  0  0  0
    4.9338    2.6200    0.0000 C   0  0  0  0  0  0  0  0  0  0  0  0
    4.9338    8.6200    0.0000 C   0  0  0  0  0  0  0  0  0  0  0  0
    5.7998    7.1200    0.0000 C   0  0  0  0  0  0  0  0  0  0  0  0
    4.9338    0.6200    0.0000 C   0  0  0  0  0  0  0  0  0  0  0  0
    5.7998    2.1200    0.0000 C   0  0  0  0  0  0  0  0  0  0  0  0
    5.7998    1.1200    0.0000 C   0  0  0  0  0  0  0  0  0  0  0  0
    2.8999   12.7519    0.0000 C   0  0  0  0  0  0  0  0  0  0  0  0
    3.7660   12.2519    0.0000 C   0  0  0  0  0  0  0  0  0  0  0  0
    2.0339   12.2519    0.0000 C   0  0  0  0  0  0  0  0  0  0  0  0
    4.6320   12.7519    0.0000 C   0  0  0  0  0  0  0  0  0  0  0  0
    2.9897    7.2026    0.0000 H   0  0  0  0  0  0  0  0  0  0  0  0
    2.5912    6.5123    0.0000 H   0  0  0  0  0  0  0  0  0  0  0  0
    1.4490    6.2746    0.0000 H   0  0  0  0  0  0  0  0  0  0  0  0
    1.4490    2.9654    0.0000 H   0  0  0  0  0  0  0  0  0  0  0  0
    2.6648    2.3100    0.0000 H   0  0  0  0  0  0  0  0  0  0  0  0
    0.0000    5.4529    0.0000 H   0  0  0  0  0  0  0  0  0  0  0  0
    0.0000    3.7871    0.0000 H   0  0  0  0  0  0  0  0  0  0  0  0
    3.5309    8.4300    0.0000 H   0  0  0  0  0  0  0  0  0  0  0  0
    4.9338    6.0000    0.0000 H   0  0  0  0  0  0  0  0  0  0  0  0
    3.5309    0.8100    0.0000 H   0  0  0  0  0  0  0  0  0  0  0  0
    4.9338    3.2400    0.0000 H   0  0  0  0  0  0  0  0  0  0  0  0
    4.9338    9.2400    0.0000 H   0  0  0  0  0  0  0  0  0  0  0  0
    6.3368    6.8100    0.0000 H   0  0  0  0  0  0  0  0  0  0  0  0
    4.9338    0.0000    0.0000 H   0  0  0  0  0  0  0  0  0  0  0  0
    6.3368    2.4300    0.0000 H   0  0  0  0  0  0  0  0  0  0  0  0
    3.2984   13.2268    0.0000 H   0  0  0  0  0  0  0  0  0  0  0  0
    2.5014   13.2268    0.0000 H   0  0  0  0  0  0  0  0  0  0  0  0
    3.3674   11.7769    0.0000 H   0  0  0  0  0  0  0  0  0  0  0  0
    4.1645   11.7769    0.0000 H   0  0  0  0  0  0  0  0  0  0  0  0
    0.6309   12.4419    0.0000 H   0  0  0  0  0  0  0  0  0  0  0  0
    6.0349   12.5619    0.0000 H   0  0  0  0  0  0  0  0  0  0  0  0
  1 29  1  0  0  0  0
  2 32  1  0  0  0  0
  2 53  1  0  0  0  0
  3 33  1  0  0  0  0
  3 54  1  0  0  0  0
  4 32  2  0  0  0  0
  5 33  2  0  0  0  0
  6 14  1  0  0  0  0
  6 20  1  0  0  0  0
  6 38  1  0  0  0  0
  7  8  1  0  0  0  0
  7 12  2  0  0  0  0
  8 14  2  0  0  0  0
  9 25  2  0  0  0  0
  9 26  1  0  0  0  0
 10 11  1  0  0  0  0
 10 12  1  0  0  0  0
 10 15  2  0  0  0  0
 11 14  1  0  0  0  0
 11 17  2  0  0  0  0
 12 13  1  0  0  0  0
 13 16  1  0  0  0  0
 13 34  1  0  0  0  0
 13 35  1  0  0  0  0
 15 18  1  0  0  0  0
 15 36  1  0  0  0  0
 16 21  2  0  0  0  0
 16 22  1  0  0  0  0
 17 19  1  0  0  0  0
 17 37  1  0  0  0  0
 18 19  2  0  0  0  0
 18 39  1  0  0  0  0
 19 40  1  0  0  0  0
 20 23  2  0  0  0  0
 20 24  1  0  0  0  0
 21 25  1  0  0  0  0
 21 41  1  0  0  0  0
 22 26  2  0  0  0  0
 22 42  1  0  0  0  0
 23 27  1  0  0  0  0
 23 43  1  0  0  0  0
 24 28  2  0  0  0  0
 24 44  1  0  0  0  0
 25 45  1  0  0  0  0
 26 46  1  0  0  0  0
 27 29  2  0  0  0  0
 27 47  1  0  0  0  0
 28 29  1  0  0  0  0
 28 48  1  0  0  0  0
 30 31  1  0  0  0  0
 30 32  1  0  0  0  0
 30 49  1  0  0  0  0
 30 50  1  0  0  0  0
 31 33  1  0  0  0  0
 31 51  1  0  0  0  0
 31 52  1  0  0  0  0
M  END
> <PUBCHEM_COMPOUND_CID>
151193

> <PUBCHEM_COMPOUND_CANONICALIZED>
1

> <PUBCHEM_CACTVS_COMPLEXITY>
499

> <PUBCHEM_CACTVS_HBOND_ACCEPTOR>
8

> <PUBCHEM_CACTVS_HBOND_DONOR>
3

> <PUBCHEM_CACTVS_ROTATABLE_BOND>
7

> <PUBCHEM_CACTVS_SUBSKEYS>
AAADceB7uAAEAAAAAAAAAAAAAAAAAAAAAAA8eIEAAAAAAACx/AAAHgIYCAAADArBniQ9+NLIEgCqAzb3bACShCIxByAd2CE4ZpiIIPLBm5GE4Ah0mALIyCdTgMAOgABAAAAQAAAAAIAAACAAAAAAAAAAAA==

> <PUBCHEM_IUPAC_OPENEYE_NAME>
N-(4-chlorophenyl)-4-(4-pyridylmethyl)phthalazin-1-amine;succinic acid

> <PUBCHEM_IUPAC_CAS_NAME>
butanedioic acid;N-(4-chlorophenyl)-4-(pyridin-4-ylmethyl)-1-phthalazinamine

> <PUBCHEM_IUPAC_NAME_MARKUP>
butanedioic acid;<I>N</I>-(4-chlorophenyl)-4-(pyridin-4-ylmethyl)phthalazin-1-amine

> <PUBCHEM_IUPAC_NAME>
butanedioic acid;N-(4-chlorophenyl)-4-(pyridin-4-ylmethyl)phthalazin-1-amine

> <PUBCHEM_IUPAC_SYSTEMATIC_NAME>
butanedioic acid;N-(4-chlorophenyl)-4-(pyridin-4-ylmethyl)phthalazin-1-amine

> <PUBCHEM_IUPAC_TRADITIONAL_NAME>
(4-chlorophenyl)-[4-(4-pyridylmethyl)phthalazin-1-yl]amine;succinic acid

> <PUBCHEM_IUPAC_INCHI>
InChI=1S/C20H15ClN4.C4H6O4/c21-15-5-7-16(8-6-15)23-20-18-4-2-1-3-17(18)19(24-25-20)13-14-9-11-22-12-10-14;5-3(6)1-2-4(7)8/h1-12H,13H2,(H,23,25);1-2H2,(H,5,6)(H,7,8)

> <PUBCHEM_IUPAC_INCHIKEY>
LLDWLPRYLVPDTG-UHFFFAOYSA-N

> <PUBCHEM_EXACT_MASS>
464.1251329

> <PUBCHEM_MOLECULAR_FORMULA>
C24H21ClN4O4

> <PUBCHEM_MOLECULAR_WEIGHT>
464.9

> <PUBCHEM_OPENEYE_CAN_SMILES>
C1=CC=C2C(=C1)C(=NN=C2NC3=CC=C(C=C3)Cl)CC4=CC=NC=C4.C(CC(=O)O)C(=O)O

> <PUBCHEM_OPENEYE_ISO_SMILES>
C1=CC=C2C(=C1)C(=NN=C2NC3=CC=C(C=C3)Cl)CC4=CC=NC=C4.C(CC(=O)O)C(=O)O

> <PUBCHEM_CACTVS_TPSA>
125

> <PUBCHEM_MONOISOTOPIC_WEIGHT>
464.1251329

> <PUBCHEM_TOTAL_CHARGE>
0

> <PUBCHEM_HEAVY_ATOM_COUNT>
33

> <PUBCHEM_ATOM_DEF_STEREO_COUNT>
0

> <PUBCHEM_ATOM_UDEF_STEREO_COUNT>
0

> <PUBCHEM_BOND_DEF_STEREO_COUNT>
0

> <PUBCHEM_BOND_UDEF_STEREO_COUNT>
0

> <PUBCHEM_ISOTOPIC_ATOM_COUNT>
0

> <PUBCHEM_COMPONENT_COUNT>
2

> <PUBCHEM_CACTVS_TAUTO_COUNT>
-1

> <PUBCHEM_COORDINATE_TYPE>
1
5
255

> <PUBCHEM_BONDANNOTATIONS>
10  11  8
10  12  8
10  15  8
11  14  8
11  17  8
15  18  8
16  21  8
16  22  8
17  19  8
18  19  8
20  23  8
20  24  8
21  25  8
22  26  8
23  27  8
24  28  8
27  29  8
28  29  8
7  12  8
7  8  8
8  14  8
9  25  8
9  26  8

$$$$
11226834
  -OEChem-11282412102D

 72 75  0     0  0  0  0  0  0999 V2000
    7.2736    2.5209    0.0000 F   0  0  0  0  0  0  0  0  0  0  0  0
    3.8163    7.5554    0.0000 O   0  0  0  0  0  0  0  0  0  0  0  0
    3.8163    5.5554    0.0000 O   0  0  0  0  0  0  0  0  0  0  0  0
    7.2968    4.5208    0.0000 O   0  0  0  0  0  0  0  0  0  0  0  0
    4.1471   16.9758    0.0000 O   0  0  0  0  0  0  0  0  0  0  0  0
    7.6112   14.9758    0.0000 O   0  0  0  0  0  0  0  0  0  0  0  0
    5.0132   15.4758    0.0000 O   0  0  0  0  0  0  0  0  0  0  0  0
    5.8792   14.9758    0.0000 O   0  0  0  0  0  0  0  0  0  0  0  0
    2.0843   10.5554    0.0000 N   0  0  0  0  0  0  0  0  0  0  0  0
   10.6066    2.3153    0.0000 N   0  0  0  0  0  0  0  0  0  0  0  0
    7.3083    7.5900    0.0000 N   0  0  0  0  0  0  0  0  0  0  0  0
    8.2144    6.0346    0.0000 N   0  0  0  0  0  0  0  0  0  0  0  0
    1.9797   11.5499    0.0000 C   0  0  0  0  0  0  0  0  0  0  0  0
    1.1707   10.1486    0.0000 C   0  0  0  0  0  0  0  0  0  0  0  0
    1.0016   11.7578    0.0000 C   0  0  0  0  0  0  0  0  0  0  0  0
    0.5016   10.8918    0.0000 C   0  0  0  0  0  0  0  0  0  0  0  0
    2.9503   10.0554    0.0000 C   0  0  0  0  0  0  0  0  0  0  0  0
    2.9503    9.0554    0.0000 C   0  0  0  0  0  0  0  0  0  0  0  0
    3.8163    8.5554    0.0000 C   0  0  0  0  0  0  0  0  0  0  0  0
    4.6823    7.0554    0.0000 C   0  0  0  0  0  0  0  0  0  0  0  0
    4.6823    6.0554    0.0000 C   0  0  0  0  0  0  0  0  0  0  0  0
    5.5484    7.5554    0.0000 C   0  0  0  0  0  0  0  0  0  0  0  0
    6.4144    6.0554    0.0000 C   0  0  0  0  0  0  0  0  0  0  0  0
    6.4144    7.0554    0.0000 C   0  0  0  0  0  0  0  0  0  0  0  0
    5.5484    5.5554    0.0000 C   0  0  0  0  0  0  0  0  0  0  0  0
    9.0056    2.5009    0.0000 C   0  0  0  0  0  0  0  0  0  0  0  0
    9.8773    2.9908    0.0000 C   0  0  0  0  0  0  0  0  0  0  0  0
    7.3083    5.5207    0.0000 C   0  0  0  0  0  0  0  0  0  0  0  0
   10.1910    1.4122    0.0000 C   0  0  0  0  0  0  0  0  0  0  0  0
    8.1570    4.0108    0.0000 C   0  0  0  0  0  0  0  0  0  0  0  0
    9.2035    1.5267    0.0000 C   0  0  0  0  0  0  0  0  0  0  0  0
    8.1454    3.0109    0.0000 C   0  0  0  0  0  0  0  0  0  0  0  0
    9.8889    3.9908    0.0000 C   0  0  0  0  0  0  0  0  0  0  0  0
    9.0287    4.5008    0.0000 C   0  0  0  0  0  0  0  0  0  0  0  0
   10.6810    0.5405    0.0000 C   0  0  0  0  0  0  0  0  0  0  0  0
    8.2144    7.0762    0.0000 C   0  0  0  0  0  0  0  0  0  0  0  0
    3.8163    4.5554    0.0000 C   0  0  0  0  0  0  0  0  0  0  0  0
    5.8792   16.9758    0.0000 C   0  0  0  0  0  0  0  0  0  0  0  0
    6.7452   16.4758    0.0000 C   0  0  0  0  0  0  0  0  0  0  0  0
    5.0132   16.4758    0.0000 C   0  0  0  0  0  0  0  0  0  0  0  0
    6.7452   15.4758    0.0000 C   0  0  0  0  0  0  0  0  0  0  0  0
    2.5997   11.5499    0.0000 H   0  0  0  0  0  0  0  0  0  0  0  0
    2.0446   12.1665    0.0000 H   0  0  0  0  0  0  0  0  0  0  0  0
    0.6691    9.7842    0.0000 H   0  0  0  0  0  0  0  0  0  0  0  0
    1.4807    9.6117    0.0000 H   0  0  0  0  0  0  0  0  0  0  0  0
    1.1932   12.3475    0.0000 H   0  0  0  0  0  0  0  0  0  0  0  0
    0.4352   12.0100    0.0000 H   0  0  0  0  0  0  0  0  0  0  0  0
    0.0000   11.2562    0.0000 H   0  0  0  0  0  0  0  0  0  0  0  0
    0.0867   10.4310    0.0000 H   0  0  0  0  0  0  0  0  0  0  0  0
    3.5609    9.9477    0.0000 H   0  0  0  0  0  0  0  0  0  0  0  0
    3.1623   10.6380    0.0000 H   0  0  0  0  0  0  0  0  0  0  0  0
    2.3397    9.1630    0.0000 H   0  0  0  0  0  0  0  0  0  0  0  0
    2.7382    8.4728    0.0000 H   0  0  0  0  0  0  0  0  0  0  0  0
    4.4269    8.4477    0.0000 H   0  0  0  0  0  0  0  0  0  0  0  0
    4.0284    9.1380    0.0000 H   0  0  0  0  0  0  0  0  0  0  0  0
    5.5484    8.1754    0.0000 H   0  0  0  0  0  0  0  0  0  0  0  0
    5.5484    4.9354    0.0000 H   0  0  0  0  0  0  0  0  0  0  0  0
    8.7842    1.0701    0.0000 H   0  0  0  0  0  0  0  0  0  0  0  0
   11.2147    2.4361    0.0000 H   0  0  0  0  0  0  0  0  0  0  0  0
   10.4294    4.2945    0.0000 H   0  0  0  0  0  0  0  0  0  0  0  0
    9.0359    5.1207    0.0000 H   0  0  0  0  0  0  0  0  0  0  0  0
   10.1405    0.2367    0.0000 H   0  0  0  0  0  0  0  0  0  0  0  0
   10.9847    0.0000    0.0000 H   0  0  0  0  0  0  0  0  0  0  0  0
   11.2214    0.8443    0.0000 H   0  0  0  0  0  0  0  0  0  0  0  0
    8.7501    7.3883    0.0000 H   0  0  0  0  0  0  0  0  0  0  0  0
    3.1963    4.5554    0.0000 H   0  0  0  0  0  0  0  0  0  0  0  0
    3.8163    3.9354    0.0000 H   0  0  0  0  0  0  0  0  0  0  0  0
    4.4363    4.5554    0.0000 H   0  0  0  0  0  0  0  0  0  0  0  0
    5.8792   17.5958    0.0000 H   0  0  0  0  0  0  0  0  0  0  0  0
    7.2822   16.7858    0.0000 H   0  0  0  0  0  0  0  0  0  0  0  0
    3.6102   16.6658    0.0000 H   0  0  0  0  0  0  0  0  0  0  0  0
    7.6112   14.3558    0.0000 H   0  0  0  0  0  0  0  0  0  0  0  0
  1 32  1  0  0  0  0
  2 19  1  0  0  0  0
  2 20  1  0  0  0  0
  3 21  1  0  0  0  0
  3 37  1  0  0  0  0
  4 28  1  0  0  0  0
  4 30  1  0  0  0  0
  5 40  1  0  0  0  0
  5 71  1  0  0  0  0
  6 41  1  0  0  0  0
  6 72  1  0  0  0  0
  7 40  2  0  0  0  0
  8 41  2  0  0  0  0
  9 13  1  0  0  0  0
  9 14  1  0  0  0  0
  9 17  1  0  0  0  0
 10 27  1  0  0  0  0
 10 29  1  0  0  0  0
 10 59  1  0  0  0  0
 11 24  1  0  0  0  0
 11 36  2  0  0  0  0
 12 28  2  0  0  0  0
 12 36  1  0  0  0  0
 13 15  1  0  0  0  0
 13 42  1  0  0  0  0
 13 43  1  0  0  0  0
 14 16  1  0  0  0  0
 14 44  1  0  0  0  0
 14 45  1  0  0  0  0
 15 16  1  0  0  0  0
 15 46  1  0  0  0  0
 15 47  1  0  0  0  0
 16 48  1  0  0  0  0
 16 49  1  0  0  0  0
 17 18  1  0  0  0  0
 17 50  1  0  0  0  0
 17 51  1  0  0  0  0
 18 19  1  0  0  0  0
 18 52  1  0  0  0  0
 18 53  1  0  0  0  0
 19 54  1  0  0  0  0
 19 55  1  0  0  0  0
 20 21  2  0  0  0  0
 20 22  1  0  0  0  0
 21 25  1  0  0  0  0
 22 24  2  0  0  0  0
 22 56  1  0  0  0  0
 23 24  1  0  0  0  0
 23 25  2  0  0  0  0
 23 28  1  0  0  0  0
 25 57  1  0  0  0  0
 26 27  2  0  0  0  0
 26 31  1  0  0  0  0
 26 32  1  0  0  0  0
 27 33  1  0  0  0  0
 29 31  2  0  0  0  0
 29 35  1  0  0  0  0
 30 32  2  0  0  0  0
 30 34  1  0  0  0  0
 31 58  1  0  0  0  0
 33 34  2  0  0  0  0
 33 60  1  0  0  0  0
 34 61  1  0  0  0  0
 35 62  1  0  0  0  0
 35 63  1  0  0  0  0
 35 64  1  0  0  0  0
 36 65  1  0  0  0  0
 37 66  1  0  0  0  0
 37 67  1  0  0  0  0
 37 68  1  0  0  0  0
 38 39  2  0  0  0  0
 38 40  1  0  0  0  0
 38 69  1  0  0  0  0
 39 41  1  0  0  0  0
 39 70  1  0  0  0  0
M  END
> <PUBCHEM_COMPOUND_CID>
11226834

> <PUBCHEM_COMPOUND_CANONICALIZED>
1

> <PUBCHEM_CACTVS_COMPLEXITY>
743

> <PUBCHEM_CACTVS_HBOND_ACCEPTOR>
11

> <PUBCHEM_CACTVS_HBOND_DONOR>
3

> <PUBCHEM_CACTVS_ROTATABLE_BOND>
10

> <PUBCHEM_CACTVS_SUBSKEYS>
AAADceB7uQAAAAAAAAAAAAAAAAAAAWLAAAA8YIAAAAAAAFix/gAAHwAQCAAADAzhng433vfJlgCoAyTzbACCiCkxIqAJ2SA+7NiNLuLE+duOPCru0BvK+afw8L8OIEABAgACQABAgAIEAASAAAAAAAAAAA==

> <PUBCHEM_IUPAC_OPENEYE_NAME>
4-[(4-fluoro-2-methyl-1H-indol-5-yl)oxy]-6-methoxy-7-(3-pyrrolidin-1-ylpropoxy)quinazoline;maleic acid

> <PUBCHEM_IUPAC_CAS_NAME>
(Z)-2-butenedioic acid;4-[(4-fluoro-2-methyl-1H-indol-5-yl)oxy]-6-methoxy-7-[3-(1-pyrrolidinyl)propoxy]quinazoline

> <PUBCHEM_IUPAC_NAME_MARKUP>
(<I>Z</I>)-but-2-enedioic acid;4-[(4-fluoro-2-methyl-1<I>H</I>-indol-5-yl)oxy]-6-methoxy-7-(3-pyrrolidin-1-ylpropoxy)quinazoline

> <PUBCHEM_IUPAC_NAME>
(Z)-but-2-enedioic acid;4-[(4-fluoro-2-methyl-1H-indol-5-yl)oxy]-6-methoxy-7-(3-pyrrolidin-1-ylpropoxy)quinazoline

> <PUBCHEM_IUPAC_SYSTEMATIC_NAME>
(Z)-but-2-enedioic acid;4-[(4-fluoranyl-2-methyl-1H-indol-5-yl)oxy]-6-methoxy-7-(3-pyrrolidin-1-ylpropoxy)quinazoline

> <PUBCHEM_IUPAC_TRADITIONAL_NAME>
4-[(4-fluoro-2-methyl-1H-indol-5-yl)oxy]-6-methoxy-7-(3-pyrrolidinopropoxy)quinazoline;maleic acid

> <PUBCHEM_IUPAC_INCHI>
InChI=1S/C25H27FN4O3.C4H4O4/c1-16-12-17-19(29-16)6-7-21(24(17)26)33-25-18-13-22(31-2)23(14-20(18)27-15-28-25)32-11-5-10-30-8-3-4-9-30;5-3(6)1-2-4(7)8/h6-7,12-15,29H,3-5,8-11H2,1-2H3;1-2H,(H,5,6)(H,7,8)/b;2-1-

> <PUBCHEM_IUPAC_INCHIKEY>
JRMGHBVACUJCRP-BTJKTKAUSA-N

> <PUBCHEM_EXACT_MASS>
566.21767750

> <PUBCHEM_MOLECULAR_FORMULA>
C29H31FN4O7

> <PUBCHEM_MOLECULAR_WEIGHT>
566.6

> <PUBCHEM_OPENEYE_CAN_SMILES>
CC1=CC2=C(N1)C=CC(=C2F)OC3=NC=NC4=CC(=C(C=C43)OC)OCCCN5CCCC5.C(=CC(=O)O)C(=O)O

> <PUBCHEM_OPENEYE_ISO_SMILES>
CC1=CC2=C(N1)C=CC(=C2F)OC3=NC=NC4=CC(=C(C=C43)OC)OCCCN5CCCC5.C(=C\C(=O)O)\C(=O)O

> <PUBCHEM_CACTVS_TPSA>
147

> <PUBCHEM_MONOISOTOPIC_WEIGHT>
566.21767750

> <PUBCHEM_TOTAL_CHARGE>
0

> <PUBCHEM_HEAVY_ATOM_COUNT>
41

> <PUBCHEM_ATOM_DEF_STEREO_COUNT>
0

> <PUBCHEM_ATOM_UDEF_STEREO_COUNT>
0

> <PUBCHEM_BOND_DEF_STEREO_COUNT>
1

> <PUBCHEM_BOND_UDEF_STEREO_COUNT>
0

> <PUBCHEM_ISOTOPIC_ATOM_COUNT>
0

> <PUBCHEM_COMPONENT_COUNT>
2

> <PUBCHEM_CACTVS_TAUTO_COUNT>
-1

> <PUBCHEM_COORDINATE_TYPE>
1
5
255

> <PUBCHEM_BONDANNOTATIONS>
10  27  8
10  29  8
11  24  8
11  36  8
12  28  8
12  36  8
20  21  8
20  22  8
21  25  8
22  24  8
23  24  8
23  25  8
23  28  8
26  27  8
26  31  8
26  32  8
27  33  8
29  31  8
30  32  8
30  34  8
33  34  8

$$$$
11667893
  -OEChem-11282412102D

 51 54  0     0  0  0  0  0  0999 V2000
    5.4641   -0.2500    0.0000 O   0  0  0  0  0  0  0  0  0  0  0  0
    9.8744   -1.5547    0.0000 N   0  0  0  0  0  0  0  0  0  0  0  0
    6.3301   -1.7500    0.0000 N   0  0  0  0  0  0  0  0  0  0  0  0
    3.7320   -0.2500    0.0000 N   0  0  0  0  0  0  0  0  0  0  0  0
    2.8660   -1.7500    0.0000 N   0  0  0  0  0  0  0  0  0  0  0  0
    2.8660    3.2500    0.0000 N   0  0  0  0  0  0  0  0  0  0  0  0
    9.8744    0.0547    0.0000 C   0  0  0  0  0  0  0  0  0  0  0  0
   10.4580   -0.7500    0.0000 C   0  0  0  0  0  0  0  0  0  0  0  0
    8.9282   -0.2500    0.0000 C   0  0  0  0  0  0  0  0  0  0  0  0
    8.9282   -1.2500    0.0000 C   0  0  0  0  0  0  0  0  0  0  0  0
   10.6845    0.6411    0.0000 C   0  0  0  0  0  0  0  0  0  0  0  0
    9.5670    1.0063    0.0000 C   0  0  0  0  0  0  0  0  0  0  0  0
    8.0622    0.2500    0.0000 C   0  0  0  0  0  0  0  0  0  0  0  0
    8.0622   -1.7500    0.0000 C   0  0  0  0  0  0  0  0  0  0  0  0
    7.1962   -1.2500    0.0000 C   0  0  0  0  0  0  0  0  0  0  0  0
    7.1962   -0.2500    0.0000 C   0  0  0  0  0  0  0  0  0  0  0  0
    5.4641   -1.2500    0.0000 C   0  0  0  0  0  0  0  0  0  0  0  0
    4.5981   -1.7500    0.0000 C   0  0  0  0  0  0  0  0  0  0  0  0
    3.7320   -1.2500    0.0000 C   0  0  0  0  0  0  0  0  0  0  0  0
    4.5981   -2.7500    0.0000 C   0  0  0  0  0  0  0  0  0  0  0  0
    2.8660    0.2500    0.0000 C   0  0  0  0  0  0  0  0  0  0  0  0
    2.8660    1.2500    0.0000 C   0  0  0  0  0  0  0  0  0  0  0  0
    3.7320   -3.2500    0.0000 C   0  0  0  0  0  0  0  0  0  0  0  0
    2.8660   -2.7500    0.0000 C   0  0  0  0  0  0  0  0  0  0  0  0
    3.7320    1.7500    0.0000 C   0  0  0  0  0  0  0  0  0  0  0  0
    2.0000    1.7500    0.0000 C   0  0  0  0  0  0  0  0  0  0  0  0
    3.7320    2.7500    0.0000 C   0  0  0  0  0  0  0  0  0  0  0  0
    2.0000    2.7500    0.0000 C   0  0  0  0  0  0  0  0  0  0  0  0
   10.9189   -1.1647    0.0000 H   0  0  0  0  0  0  0  0  0  0  0  0
   10.9189   -0.3353    0.0000 H   0  0  0  0  0  0  0  0  0  0  0  0
   10.0670   -2.1440    0.0000 H   0  0  0  0  0  0  0  0  0  0  0  0
   11.0480    0.1389    0.0000 H   0  0  0  0  0  0  0  0  0  0  0  0
   11.1867    1.0047    0.0000 H   0  0  0  0  0  0  0  0  0  0  0  0
   10.3209    1.1433    0.0000 H   0  0  0  0  0  0  0  0  0  0  0  0
   10.1570    1.1969    0.0000 H   0  0  0  0  0  0  0  0  0  0  0  0
    9.3765    1.5963    0.0000 H   0  0  0  0  0  0  0  0  0  0  0  0
    8.9771    0.8158    0.0000 H   0  0  0  0  0  0  0  0  0  0  0  0
    8.0622    0.8700    0.0000 H   0  0  0  0  0  0  0  0  0  0  0  0
    8.0622   -2.3700    0.0000 H   0  0  0  0  0  0  0  0  0  0  0  0
    6.6592    0.0600    0.0000 H   0  0  0  0  0  0  0  0  0  0  0  0
    6.3301   -2.3700    0.0000 H   0  0  0  0  0  0  0  0  0  0  0  0
    5.1350   -3.0600    0.0000 H   0  0  0  0  0  0  0  0  0  0  0  0
    4.2690    0.0600    0.0000 H   0  0  0  0  0  0  0  0  0  0  0  0
    2.2554    0.3577    0.0000 H   0  0  0  0  0  0  0  0  0  0  0  0
    2.6540   -0.3326    0.0000 H   0  0  0  0  0  0  0  0  0  0  0  0
    3.7320   -3.8700    0.0000 H   0  0  0  0  0  0  0  0  0  0  0  0
    2.3291   -3.0600    0.0000 H   0  0  0  0  0  0  0  0  0  0  0  0
    4.2690    1.4400    0.0000 H   0  0  0  0  0  0  0  0  0  0  0  0
    1.4631    1.4400    0.0000 H   0  0  0  0  0  0  0  0  0  0  0  0
    4.2690    3.0600    0.0000 H   0  0  0  0  0  0  0  0  0  0  0  0
    1.4631    3.0600    0.0000 H   0  0  0  0  0  0  0  0  0  0  0  0
  1 17  2  0  0  0  0
  2  8  1  0  0  0  0
  2 10  1  0  0  0  0
  2 31  1  0  0  0  0
  3 15  1  0  0  0  0
  3 17  1  0  0  0  0
  3 41  1  0  0  0  0
  4 19  1  0  0  0  0
  4 21  1  0  0  0  0
  4 43  1  0  0  0  0
  5 19  1  0  0  0  0
  5 24  2  0  0  0  0
  6 27  2  0  0  0  0
  6 28  1  0  0  0  0
  7  8  1  0  0  0  0
  7  9  1  0  0  0  0
  7 11  1  0  0  0  0
  7 12  1  0  0  0  0
  8 29  1  0  0  0  0
  8 30  1  0  0  0  0
  9 10  2  0  0  0  0
  9 13  1  0  0  0  0
 10 14  1  0  0  0  0
 11 32  1  0  0  0  0
 11 33  1  0  0  0  0
 11 34  1  0  0  0  0
 12 35  1  0  0  0  0
 12 36  1  0  0  0  0
 12 37  1  0  0  0  0
 13 16  2  0  0  0  0
 13 38  1  0  0  0  0
 14 15  2  0  0  0  0
 14 39  1  0  0  0  0
 15 16  1  0  0  0  0
 16 40  1  0  0  0  0
 17 18  1  0  0  0  0
 18 19  2  0  0  0  0
 18 20  1  0  0  0  0
 20 23  2  0  0  0  0
 20 42  1  0  0  0  0
 21 22  1  0  0  0  0
 21 44  1  0  0  0  0
 21 45  1  0  0  0  0
 22 25  2  0  0  0  0
 22 26  1  0  0  0  0
 23 24  1  0  0  0  0
 23 46  1  0  0  0  0
 24 47  1  0  0  0  0
 25 27  1  0  0  0  0
 25 48  1  0  0  0  0
 26 28  2  0  0  0  0
 26 49  1  0  0  0  0
 27 50  1  0  0  0  0
 28 51  1  0  0  0  0
M  END
> <PUBCHEM_COMPOUND_CID>
11667893

> <PUBCHEM_COMPOUND_CANONICALIZED>
1

> <PUBCHEM_CACTVS_COMPLEXITY>
533

> <PUBCHEM_CACTVS_HBOND_ACCEPTOR>
5

> <PUBCHEM_CACTVS_HBOND_DONOR>
3

> <PUBCHEM_CACTVS_ROTATABLE_BOND>
5

> <PUBCHEM_CACTVS_SUBSKEYS>
AAADceB7oAAAAAAAAAAAAAAAAAAAAWAAAAA8WIAAAAAAAFgB8AAAHgAQAAAADgjBmgQ/8JLIEACoAjd3dACCgCk1AiAJ2KE4ZNiIIPrA3dGEIYholALIyecYgcAPiAAAAAQCAAAQAAAACAQAAAAAAAAAAA==

> <PUBCHEM_IUPAC_OPENEYE_NAME>
N-(3,3-dimethylindolin-6-yl)-2-(4-pyridylmethylamino)pyridine-3-carboxamide

> <PUBCHEM_IUPAC_CAS_NAME>
N-(3,3-dimethyl-1,2-dihydroindol-6-yl)-2-(pyridin-4-ylmethylamino)-3-pyridinecarboxamide

> <PUBCHEM_IUPAC_NAME_MARKUP>
<I>N</I>-(3,3-dimethyl-1,2-dihydroindol-6-yl)-2-(pyridin-4-ylmethylamino)pyridine-3-carboxamide

> <PUBCHEM_IUPAC_NAME>
N-(3,3-dimethyl-1,2-dihydroindol-6-yl)-2-(pyridin-4-ylmethylamino)pyridine-3-carboxamide

> <PUBCHEM_IUPAC_SYSTEMATIC_NAME>
N-(3,3-dimethyl-1,2-dihydroindol-6-yl)-2-(pyridin-4-ylmethylamino)pyridine-3-carboxamide

> <PUBCHEM_IUPAC_TRADITIONAL_NAME>
N-(3,3-dimethylindolin-6-yl)-2-(4-pyridylmethylamino)nicotinamide

> <PUBCHEM_IUPAC_INCHI>
InChI=1S/C22H23N5O/c1-22(2)14-26-19-12-16(5-6-18(19)22)27-21(28)17-4-3-9-24-20(17)25-13-15-7-10-23-11-8-15/h3-12,26H,13-14H2,1-2H3,(H,24,25)(H,27,28)

> <PUBCHEM_IUPAC_INCHIKEY>
RAHBGWKEPAQNFF-UHFFFAOYSA-N

> <PUBCHEM_XLOGP3_AA>
3.9

> <PUBCHEM_EXACT_MASS>
373.19026037

> <PUBCHEM_MOLECULAR_FORMULA>
C22H23N5O

> <PUBCHEM_MOLECULAR_WEIGHT>
373.5

> <PUBCHEM_OPENEYE_CAN_SMILES>
CC1(CNC2=C1C=CC(=C2)NC(=O)C3=C(N=CC=C3)NCC4=CC=NC=C4)C

> <PUBCHEM_OPENEYE_ISO_SMILES>
CC1(CNC2=C1C=CC(=C2)NC(=O)C3=C(N=CC=C3)NCC4=CC=NC=C4)C

> <PUBCHEM_CACTVS_TPSA>
78.9

> <PUBCHEM_MONOISOTOPIC_WEIGHT>
373.19026037

> <PUBCHEM_TOTAL_CHARGE>
0

> <PUBCHEM_HEAVY_ATOM_COUNT>
28

> <PUBCHEM_ATOM_DEF_STEREO_COUNT>
0

> <PUBCHEM_ATOM_UDEF_STEREO_COUNT>
0

> <PUBCHEM_BOND_DEF_STEREO_COUNT>
0

> <PUBCHEM_BOND_UDEF_STEREO_COUNT>
0

> <PUBCHEM_ISOTOPIC_ATOM_COUNT>
0

> <PUBCHEM_COMPONENT_COUNT>
1

> <PUBCHEM_CACTVS_TAUTO_COUNT>
-1

> <PUBCHEM_COORDINATE_TYPE>
1
5
255

> <PUBCHEM_BONDANNOTATIONS>
10  14  8
13  16  8
14  15  8
15  16  8
18  19  8
18  20  8
20  23  8
22  25  8
22  26  8
23  24  8
25  27  8
26  28  8
5  19  8
5  24  8
6  27  8
6  28  8
9  10  8
9  13  8

$$$$
121293929
  -OEChem-11282412102D

 50 52  0     1  0  0  0  0  0999 V2000
    2.0000   -0.6900    0.0000 F   0  0  0  0  0  0  0  0  0  0  0  0
    4.5981    3.8100    0.0000 O   0  0  0  0  0  0  0  0  0  0  0  0
    4.5981   -4.1900    0.0000 O   0  0  0  0  0  0  0  0  0  0  0  0
    3.7320    0.3100    0.0000 N   0  0  3  0  0  0  0  0  0  0  0  0
    5.4641    2.3100    0.0000 N   0  0  0  0  0  0  0  0  0  0  0  0
    5.5443   -2.4947    0.0000 N   0  0  0  0  0  0  0  0  0  0  0  0
    2.8660   -4.1900    0.0000 N   0  0  0  0  0  0  0  0  0  0  0  0
    4.5981    1.8100    0.0000 C   0  0  2  0  0  0  0  0  0  0  0  0
    4.5981    0.8100    0.0000 C   0  0  0  0  0  0  0  0  0  0  0  0
    3.7320    2.3100    0.0000 C   0  0  0  0  0  0  0  0  0  0  0  0
    2.8660    0.8100    0.0000 C   0  0  0  0  0  0  0  0  0  0  0  0
    2.8660    1.8100    0.0000 C   0  0  0  0  0  0  0  0  0  0  0  0
    3.7320   -0.6900    0.0000 C   0  0  0  0  0  0  0  0  0  0  0  0
    4.5981   -1.1900    0.0000 C   0  0  0  0  0  0  0  0  0  0  0  0
    4.5981   -2.1900    0.0000 C   0  0  0  0  0  0  0  0  0  0  0  0
    5.5443   -0.8853    0.0000 C   0  0  0  0  0  0  0  0  0  0  0  0
    2.8660   -1.1900    0.0000 C   0  0  0  0  0  0  0  0  0  0  0  0
    6.1279   -1.6900    0.0000 C   0  0  0  0  0  0  0  0  0  0  0  0
    3.7320   -2.6900    0.0000 C   0  0  0  0  0  0  0  0  0  0  0  0
    2.8660   -2.1900    0.0000 C   0  0  0  0  0  0  0  0  0  0  0  0
    5.8550    0.0653    0.0000 C   0  0  0  0  0  0  0  0  0  0  0  0
    5.4641    3.3100    0.0000 C   0  0  0  0  0  0  0  0  0  0  0  0
    7.1279   -1.6900    0.0000 C   0  0  0  0  0  0  0  0  0  0  0  0
    3.7320   -3.6900    0.0000 C   0  0  0  0  0  0  0  0  0  0  0  0
    6.3301    3.8100    0.0000 C   0  0  0  0  0  0  0  0  0  0  0  0
    7.1962    4.3100    0.0000 C   0  0  0  0  0  0  0  0  0  0  0  0
    8.0622    4.8100    0.0000 C   0  0  0  0  0  0  0  0  0  0  0  0
    4.5981    2.4300    0.0000 H   0  0  0  0  0  0  0  0  0  0  0  0
    4.8101    0.2274    0.0000 H   0  0  0  0  0  0  0  0  0  0  0  0
    5.2087    0.9177    0.0000 H   0  0  0  0  0  0  0  0  0  0  0  0
    4.1306    2.7849    0.0000 H   0  0  0  0  0  0  0  0  0  0  0  0
    3.3335    2.7849    0.0000 H   0  0  0  0  0  0  0  0  0  0  0  0
    2.2554    0.9177    0.0000 H   0  0  0  0  0  0  0  0  0  0  0  0
    2.6540    0.2274    0.0000 H   0  0  0  0  0  0  0  0  0  0  0  0
    2.6540    2.3926    0.0000 H   0  0  0  0  0  0  0  0  0  0  0  0
    2.2554    1.7023    0.0000 H   0  0  0  0  0  0  0  0  0  0  0  0
    6.0010    2.0000    0.0000 H   0  0  0  0  0  0  0  0  0  0  0  0
    5.7369   -3.0840    0.0000 H   0  0  0  0  0  0  0  0  0  0  0  0
    2.3291   -2.5000    0.0000 H   0  0  0  0  0  0  0  0  0  0  0  0
    6.4443   -0.1274    0.0000 H   0  0  0  0  0  0  0  0  0  0  0  0
    6.0476    0.6546    0.0000 H   0  0  0  0  0  0  0  0  0  0  0  0
    5.2656    0.2579    0.0000 H   0  0  0  0  0  0  0  0  0  0  0  0
    7.1279   -2.3100    0.0000 H   0  0  0  0  0  0  0  0  0  0  0  0
    7.7479   -1.6900    0.0000 H   0  0  0  0  0  0  0  0  0  0  0  0
    7.1279   -1.0700    0.0000 H   0  0  0  0  0  0  0  0  0  0  0  0
    2.8660   -4.8100    0.0000 H   0  0  0  0  0  0  0  0  0  0  0  0
    2.3291   -3.8800    0.0000 H   0  0  0  0  0  0  0  0  0  0  0  0
    8.3722    4.2731    0.0000 H   0  0  0  0  0  0  0  0  0  0  0  0
    8.5991    5.1200    0.0000 H   0  0  0  0  0  0  0  0  0  0  0  0
    7.7522    5.3469    0.0000 H   0  0  0  0  0  0  0  0  0  0  0  0
  1 17  1  0  0  0  0
  2 22  2  0  0  0  0
  3 24  2  0  0  0  0
  4  9  1  0  0  0  0
  4 11  1  0  0  0  0
  4 13  1  0  0  0  0
  8  5  1  6  0  0  0
  5 22  1  0  0  0  0
  5 37  1  0  0  0  0
  6 15  1  0  0  0  0
  6 18  1  0  0  0  0
  6 38  1  0  0  0  0
  7 24  1  0  0  0  0
  7 46  1  0  0  0  0
  7 47  1  0  0  0  0
  8  9  1  0  0  0  0
  8 10  1  0  0  0  0
  8 28  1  0  0  0  0
  9 29  1  0  0  0  0
  9 30  1  0  0  0  0
 10 12  1  0  0  0  0
 10 31  1  0  0  0  0
 10 32  1  0  0  0  0
 11 12  1  0  0  0  0
 11 33  1  0  0  0  0
 11 34  1  0  0  0  0
 12 35  1  0  0  0  0
 12 36  1  0  0  0  0
 13 14  1  0  0  0  0
 13 17  2  0  0  0  0
 14 15  2  0  0  0  0
 14 16  1  0  0  0  0
 15 19  1  0  0  0  0
 16 18  2  0  0  0  0
 16 21  1  0  0  0  0
 17 20  1  0  0  0  0
 18 23  1  0  0  0  0
 19 20  2  0  0  0  0
 19 24  1  0  0  0  0
 20 39  1  0  0  0  0
 21 40  1  0  0  0  0
 21 41  1  0  0  0  0
 21 42  1  0  0  0  0
 22 25  1  0  0  0  0
 23 43  1  0  0  0  0
 23 44  1  0  0  0  0
 23 45  1  0  0  0  0
 25 26  3  0  0  0  0
 26 27  1  0  0  0  0
 27 48  1  0  0  0  0
 27 49  1  0  0  0  0
 27 50  1  0  0  0  0
M  END
> <PUBCHEM_COMPOUND_CID>
121293929

> <PUBCHEM_COMPOUND_CANONICALIZED>
1

> <PUBCHEM_CACTVS_COMPLEXITY>
657

> <PUBCHEM_CACTVS_HBOND_ACCEPTOR>
4

> <PUBCHEM_CACTVS_HBOND_DONOR>
3

> <PUBCHEM_CACTVS_ROTATABLE_BOND>
3

> <PUBCHEM_CACTVS_SUBSKEYS>
AAADceB7sQAAAAAAAAAAAAAAAAAAAWAAAAA8QAAAAAAAAFgB8AAAHwAQAAAADCjBngwywPPJkADoEyVyVACCgCAlACAAmaE4RNgIYPrA1NGUJYhglgDIyccYicCeiAACAAQCAAAQAAQACAQAAAAAAAAAAA==

> <PUBCHEM_IUPAC_OPENEYE_NAME>
4-[(3S)-3-(but-2-ynoylamino)-1-piperidyl]-5-fluoro-2,3-dimethyl-1H-indole-7-carboxamide

> <PUBCHEM_IUPAC_CAS_NAME>
5-fluoro-2,3-dimethyl-4-[(3S)-3-(1-oxobut-2-ynylamino)-1-piperidinyl]-1H-indole-7-carboxamide

> <PUBCHEM_IUPAC_NAME_MARKUP>
4-[(3<I>S</I>)-3-(but-2-ynoylamino)piperidin-1-yl]-5-fluoro-2,3-dimethyl-1<I>H</I>-indole-7-carboxamide

> <PUBCHEM_IUPAC_NAME>
4-[(3S)-3-(but-2-ynoylamino)piperidin-1-yl]-5-fluoro-2,3-dimethyl-1H-indole-7-carboxamide

> <PUBCHEM_IUPAC_SYSTEMATIC_NAME>
4-[(3S)-3-(but-2-ynoylamino)piperidin-1-yl]-5-fluoranyl-2,3-dimethyl-1H-indole-7-carboxamide

> <PUBCHEM_IUPAC_TRADITIONAL_NAME>
4-[(3S)-3-(but-2-ynoylamino)piperidino]-5-fluoro-2,3-dimethyl-1H-indole-7-carboxamide

> <PUBCHEM_IUPAC_INCHI>
InChI=1S/C20H23FN4O2/c1-4-6-16(26)24-13-7-5-8-25(10-13)19-15(21)9-14(20(22)27)18-17(19)11(2)12(3)23-18/h9,13,23H,5,7-8,10H2,1-3H3,(H2,22,27)(H,24,26)/t13-/m0/s1

> <PUBCHEM_IUPAC_INCHIKEY>
VJPPLCNBDLZIFG-ZDUSSCGKSA-N

> <PUBCHEM_XLOGP3_AA>
2.8

> <PUBCHEM_EXACT_MASS>
370.18050415

> <PUBCHEM_MOLECULAR_FORMULA>
C20H23FN4O2

> <PUBCHEM_MOLECULAR_WEIGHT>
370.4

> <PUBCHEM_OPENEYE_CAN_SMILES>
CC#CC(=O)NC1CCCN(C1)C2=C(C=C(C3=C2C(=C(N3)C)C)C(=O)N)F

> <PUBCHEM_OPENEYE_ISO_SMILES>
CC#CC(=O)N[C@H]1CCCN(C1)C2=C(C=C(C3=C2C(=C(N3)C)C)C(=O)N)F

> <PUBCHEM_CACTVS_TPSA>
91.2

> <PUBCHEM_MONOISOTOPIC_WEIGHT>
370.18050415

> <PUBCHEM_TOTAL_CHARGE>
0

> <PUBCHEM_HEAVY_ATOM_COUNT>
27

> <PUBCHEM_ATOM_DEF_STEREO_COUNT>
1

> <PUBCHEM_ATOM_UDEF_STEREO_COUNT>
0

> <PUBCHEM_BOND_DEF_STEREO_COUNT>
0

> <PUBCHEM_BOND_UDEF_STEREO_COUNT>
0

> <PUBCHEM_ISOTOPIC_ATOM_COUNT>
0

> <PUBCHEM_COMPONENT_COUNT>
1

> <PUBCHEM_CACTVS_TAUTO_COUNT>
-1

> <PUBCHEM_COORDINATE_TYPE>
1
5
255

> <PUBCHEM_BONDANNOTATIONS>
13  14  8
13  17  8
14  15  8
14  16  8
15  19  8
16  18  8
17  20  8
19  20  8
8  5  6
6  15  8
6  18  8

$$$$
3220
  -OEChem-11282412102D

 30 32  0     0  0  0  0  0  0999 V2000
    3.7817    1.8592    0.0000 O   0  0  0  0  0  0  0  0  0  0  0  0
    5.5301    1.8246    0.0000 O   0  0  0  0  0  0  0  0  0  0  0  0
    5.5301   -2.1754    0.0000 O   0  0  0  0  0  0  0  0  0  0  0  0
    7.2785    1.8592    0.0000 O   0  0  0  0  0  0  0  0  0  0  0  0
    9.0602   -1.1995    0.0000 O   0  0  0  0  0  0  0  0  0  0  0  0
    4.6641   -0.6754    0.0000 C   0  0  0  0  0  0  0  0  0  0  0  0
    4.6641    0.3246    0.0000 C   0  0  0  0  0  0  0  0  0  0  0  0
    6.3961    0.3246    0.0000 C   0  0  0  0  0  0  0  0  0  0  0  0
    6.3961   -0.6754    0.0000 C   0  0  0  0  0  0  0  0  0  0  0  0
    5.5301    0.8246    0.0000 C   0  0  0  0  0  0  0  0  0  0  0  0
    5.5301   -1.1754    0.0000 C   0  0  0  0  0  0  0  0  0  0  0  0
    3.7702   -1.2100    0.0000 C   0  0  0  0  0  0  0  0  0  0  0  0
    3.7702    0.8593    0.0000 C   0  0  0  0  0  0  0  0  0  0  0  0
    2.8641   -0.6962    0.0000 C   0  0  0  0  0  0  0  0  0  0  0  0
    7.2901    0.8593    0.0000 C   0  0  0  0  0  0  0  0  0  0  0  0
    7.2901   -1.2100    0.0000 C   0  0  0  0  0  0  0  0  0  0  0  0
    2.8641    0.3454    0.0000 C   0  0  0  0  0  0  0  0  0  0  0  0
    8.1962   -0.6962    0.0000 C   0  0  0  0  0  0  0  0  0  0  0  0
    8.1962    0.3454    0.0000 C   0  0  0  0  0  0  0  0  0  0  0  0
    2.0000   -1.1995    0.0000 C   0  0  0  0  0  0  0  0  0  0  0  0
    3.7773   -1.8300    0.0000 H   0  0  0  0  0  0  0  0  0  0  0  0
    7.2829   -1.8300    0.0000 H   0  0  0  0  0  0  0  0  0  0  0  0
    2.3284    0.6575    0.0000 H   0  0  0  0  0  0  0  0  0  0  0  0
    8.7319    0.6575    0.0000 H   0  0  0  0  0  0  0  0  0  0  0  0
    1.6879   -0.6638    0.0000 H   0  0  0  0  0  0  0  0  0  0  0  0
    1.4643   -1.5116    0.0000 H   0  0  0  0  0  0  0  0  0  0  0  0
    2.3121   -1.7353    0.0000 H   0  0  0  0  0  0  0  0  0  0  0  0
    3.2484    2.1754    0.0000 H   0  0  0  0  0  0  0  0  0  0  0  0
    7.8118    2.1754    0.0000 H   0  0  0  0  0  0  0  0  0  0  0  0
    9.5984   -0.8916    0.0000 H   0  0  0  0  0  0  0  0  0  0  0  0
  1 13  1  0  0  0  0
  1 28  1  0  0  0  0
  2 10  2  0  0  0  0
  3 11  2  0  0  0  0
  4 15  1  0  0  0  0
  4 29  1  0  0  0  0
  5 18  1  0  0  0  0
  5 30  1  0  0  0  0
  6  7  2  0  0  0  0
  6 11  1  0  0  0  0
  6 12  1  0  0  0  0
  7 10  1  0  0  0  0
  7 13  1  0  0  0  0
  8  9  2  0  0  0  0
  8 10  1  0  0  0  0
  8 15  1  0  0  0  0
  9 11  1  0  0  0  0
  9 16  1  0  0  0  0
 12 14  2  0  0  0  0
 12 21  1  0  0  0  0
 13 17  2  0  0  0  0
 14 17  1  0  0  0  0
 14 20  1  0  0  0  0
 15 19  2  0  0  0  0
 16 18  2  0  0  0  0
 16 22  1  0  0  0  0
 17 23  1  0  0  0  0
 18 19  1  0  0  0  0
 19 24  1  0  0  0  0
 20 25  1  0  0  0  0
 20 26  1  0  0  0  0
 20 27  1  0  0  0  0
M  END
> <PUBCHEM_COMPOUND_CID>
3220

> <PUBCHEM_COMPOUND_CANONICALIZED>
1

> <PUBCHEM_CACTVS_COMPLEXITY>
434

> <PUBCHEM_CACTVS_HBOND_ACCEPTOR>
5

> <PUBCHEM_CACTVS_HBOND_DONOR>
3

> <PUBCHEM_CACTVS_ROTATABLE_BOND>
0

> <PUBCHEM_CACTVS_SUBSKEYS>
AAADccBwOAAAAAAAAAAAAAAAAAAAAAAAAAAwYMAAAAAAAADBQAAAGgAACAAADASAmAAyBoAAAgCIAqBSAAACAAAkIAAAiAEGCMgIJzaCFRKAcUAl4BUImYeL7PTO4AADCAAYAADAAAYQADAAAAAAAAAAAA==

> <PUBCHEM_IUPAC_OPENEYE_NAME>
1,3,8-trihydroxy-6-methyl-anthracene-9,10-dione

> <PUBCHEM_IUPAC_CAS_NAME>
1,3,8-trihydroxy-6-methylanthracene-9,10-dione

> <PUBCHEM_IUPAC_NAME_MARKUP>
1,3,8-trihydroxy-6-methylanthracene-9,10-dione

> <PUBCHEM_IUPAC_NAME>
1,3,8-trihydroxy-6-methylanthracene-9,10-dione

> <PUBCHEM_IUPAC_SYSTEMATIC_NAME>
3-methyl-1,6,8-tris(oxidanyl)anthracene-9,10-dione

> <PUBCHEM_IUPAC_TRADITIONAL_NAME>
1,3,8-trihydroxy-6-methyl-9,10-anthraquinone

> <PUBCHEM_IUPAC_INCHI>
InChI=1S/C15H10O5/c1-6-2-8-12(10(17)3-6)15(20)13-9(14(8)19)4-7(16)5-11(13)18/h2-5,16-18H,1H3

> <PUBCHEM_IUPAC_INCHIKEY>
RHMXXJGYXNZAPX-UHFFFAOYSA-N

> <PUBCHEM_XLOGP3_AA>
2.7

> <PUBCHEM_EXACT_MASS>
270.05282342

> <PUBCHEM_MOLECULAR_FORMULA>
C15H10O5

> <PUBCHEM_MOLECULAR_WEIGHT>
270.24

> <PUBCHEM_OPENEYE_CAN_SMILES>
CC1=CC2=C(C(=C1)O)C(=O)C3=C(C2=O)C=C(C=C3O)O

> <PUBCHEM_OPENEYE_ISO_SMILES>
CC1=CC2=C(C(=C1)O)C(=O)C3=C(C2=O)C=C(C=C3O)O

> <PUBCHEM_CACTVS_TPSA>
94.8

> <PUBCHEM_MONOISOTOPIC_WEIGHT>
270.05282342

> <PUBCHEM_TOTAL_CHARGE>
0

> <PUBCHEM_HEAVY_ATOM_COUNT>
20

> <PUBCHEM_ATOM_DEF_STEREO_COUNT>
0

> <PUBCHEM_ATOM_UDEF_STEREO_COUNT>
0

> <PUBCHEM_BOND_DEF_STEREO_COUNT>
0

> <PUBCHEM_BOND_UDEF_STEREO_COUNT>
0

> <PUBCHEM_ISOTOPIC_ATOM_COUNT>
0

> <PUBCHEM_COMPONENT_COUNT>
1

> <PUBCHEM_CACTVS_TAUTO_COUNT>
-1

> <PUBCHEM_COORDINATE_TYPE>
1
5
255

> <PUBCHEM_BONDANNOTATIONS>
12  14  8
13  17  8
14  17  8
15  19  8
16  18  8
18  19  8
6  12  8
6  7  8
7  13  8
8  15  8
8  9  8
9  16  8

$$$$
16097729
  -OEChem-11282412102D

 67 68  0     0  0  0  0  0  0999 V2000
    9.6665    0.8660    0.0000 P   0  0  0  0  0  0  0  0  0  0  0  0
    1.4030    5.4254    0.0000 P   0  0  0  0  0  0  0  0  0  0  0  0
    8.8057    7.8878    0.0000 O   0  0  0  0  0  0  0  0  0  0  0  0
   10.5325    1.3660    0.0000 O   0  0  0  0  0  0  0  0  0  0  0  0
    8.8005    0.3660    0.0000 O   0  0  0  0  0  0  0  0  0  0  0  0
    9.1665    1.7320    0.0000 O   0  0  0  0  0  0  0  0  0  0  0  0
    2.2690    5.9254    0.0000 O   0  0  0  0  0  0  0  0  0  0  0  0
    0.5369    4.9254    0.0000 O   0  0  0  0  0  0  0  0  0  0  0  0
    0.9030    6.2914    0.0000 O   0  0  0  0  0  0  0  0  0  0  0  0
   10.1665    0.0000    0.0000 O   0  0  0  0  0  0  0  0  0  0  0  0
    1.9030    4.5594    0.0000 O   0  0  0  0  0  0  0  0  0  0  0  0
   13.2161    6.5830    0.0000 N   0  0  0  0  0  0  0  0  0  0  0  0
    9.6718    6.3878    0.0000 N   0  0  0  0  0  0  0  0  0  0  0  0
    7.0737    7.8878    0.0000 N   0  0  0  0  0  0  0  0  0  0  0  0
    6.2077    6.3878    0.0000 N   0  0  0  0  0  0  0  0  0  0  0  0
    6.2077   11.3878    0.0000 N   0  0  0  0  0  0  0  0  0  0  0  0
   13.2161    8.1925    0.0000 C   0  0  0  0  0  0  0  0  0  0  0  0
   13.7997    7.3878    0.0000 C   0  0  0  0  0  0  0  0  0  0  0  0
   12.2698    7.8878    0.0000 C   0  0  0  0  0  0  0  0  0  0  0  0
   12.2698    6.8878    0.0000 C   0  0  0  0  0  0  0  0  0  0  0  0
   14.0261    8.7789    0.0000 C   0  0  0  0  0  0  0  0  0  0  0  0
   12.9087    9.1441    0.0000 C   0  0  0  0  0  0  0  0  0  0  0  0
   11.4038    8.3878    0.0000 C   0  0  0  0  0  0  0  0  0  0  0  0
   11.4038    6.3878    0.0000 C   0  0  0  0  0  0  0  0  0  0  0  0
   10.5378    6.8878    0.0000 C   0  0  0  0  0  0  0  0  0  0  0  0
   10.5378    7.8878    0.0000 C   0  0  0  0  0  0  0  0  0  0  0  0
    8.8057    6.8878    0.0000 C   0  0  0  0  0  0  0  0  0  0  0  0
    7.9397    6.3878    0.0000 C   0  0  0  0  0  0  0  0  0  0  0  0
    7.0737    6.8878    0.0000 C   0  0  0  0  0  0  0  0  0  0  0  0
    7.9397    5.3878    0.0000 C   0  0  0  0  0  0  0  0  0  0  0  0
    6.2077    8.3878    0.0000 C   0  0  0  0  0  0  0  0  0  0  0  0
    7.0737    4.8878    0.0000 C   0  0  0  0  0  0  0  0  0  0  0  0
    6.2077    5.3878    0.0000 C   0  0  0  0  0  0  0  0  0  0  0  0
    6.2077    9.3878    0.0000 C   0  0  0  0  0  0  0  0  0  0  0  0
    7.0737    9.8878    0.0000 C   0  0  0  0  0  0  0  0  0  0  0  0
    5.3416    9.8878    0.0000 C   0  0  0  0  0  0  0  0  0  0  0  0
    7.0737   10.8878    0.0000 C   0  0  0  0  0  0  0  0  0  0  0  0
    5.3416   10.8878    0.0000 C   0  0  0  0  0  0  0  0  0  0  0  0
   14.2605    6.9730    0.0000 H   0  0  0  0  0  0  0  0  0  0  0  0
   14.2605    7.8025    0.0000 H   0  0  0  0  0  0  0  0  0  0  0  0
   14.3897    8.2767    0.0000 H   0  0  0  0  0  0  0  0  0  0  0  0
   14.5283    9.1424    0.0000 H   0  0  0  0  0  0  0  0  0  0  0  0
   13.6625    9.2811    0.0000 H   0  0  0  0  0  0  0  0  0  0  0  0
   13.4987    9.3347    0.0000 H   0  0  0  0  0  0  0  0  0  0  0  0
   12.7181    9.7341    0.0000 H   0  0  0  0  0  0  0  0  0  0  0  0
   12.3187    8.9535    0.0000 H   0  0  0  0  0  0  0  0  0  0  0  0
   13.4087    5.9937    0.0000 H   0  0  0  0  0  0  0  0  0  0  0  0
   11.4038    9.0078    0.0000 H   0  0  0  0  0  0  0  0  0  0  0  0
   11.4038    5.7678    0.0000 H   0  0  0  0  0  0  0  0  0  0  0  0
   10.0009    8.1978    0.0000 H   0  0  0  0  0  0  0  0  0  0  0  0
    9.6718    5.7678    0.0000 H   0  0  0  0  0  0  0  0  0  0  0  0
    8.4767    5.0778    0.0000 H   0  0  0  0  0  0  0  0  0  0  0  0
    7.6106    8.1978    0.0000 H   0  0  0  0  0  0  0  0  0  0  0  0
    5.5971    8.4954    0.0000 H   0  0  0  0  0  0  0  0  0  0  0  0
    5.9956    7.8052    0.0000 H   0  0  0  0  0  0  0  0  0  0  0  0
    7.0737    4.2678    0.0000 H   0  0  0  0  0  0  0  0  0  0  0  0
    5.6707    5.0778    0.0000 H   0  0  0  0  0  0  0  0  0  0  0  0
    7.6106    9.5778    0.0000 H   0  0  0  0  0  0  0  0  0  0  0  0
    4.8047    9.5778    0.0000 H   0  0  0  0  0  0  0  0  0  0  0  0
    7.6106   11.1978    0.0000 H   0  0  0  0  0  0  0  0  0  0  0  0
    4.8047   11.1978    0.0000 H   0  0  0  0  0  0  0  0  0  0  0  0
   11.0695    1.0560    0.0000 H   0  0  0  0  0  0  0  0  0  0  0  0
    8.2636    0.6760    0.0000 H   0  0  0  0  0  0  0  0  0  0  0  0
    9.4765    2.2690    0.0000 H   0  0  0  0  0  0  0  0  0  0  0  0
    2.8059    5.6154    0.0000 H   0  0  0  0  0  0  0  0  0  0  0  0
    0.0000    5.2354    0.0000 H   0  0  0  0  0  0  0  0  0  0  0  0
    1.2130    6.8284    0.0000 H   0  0  0  0  0  0  0  0  0  0  0  0
  1  4  1  0  0  0  0
  1  5  1  0  0  0  0
  1  6  1  0  0  0  0
  1 10  2  0  0  0  0
  2  7  1  0  0  0  0
  2  8  1  0  0  0  0
  2  9  1  0  0  0  0
  2 11  2  0  0  0  0
  3 27  2  0  0  0  0
  4 62  1  0  0  0  0
  5 63  1  0  0  0  0
  6 64  1  0  0  0  0
  7 65  1  0  0  0  0
  8 66  1  0  0  0  0
  9 67  1  0  0  0  0
 12 18  1  0  0  0  0
 12 20  1  0  0  0  0
 12 47  1  0  0  0  0
 13 25  1  0  0  0  0
 13 27  1  0  0  0  0
 13 51  1  0  0  0  0
 14 29  1  0  0  0  0
 14 31  1  0  0  0  0
 14 53  1  0  0  0  0
 15 29  1  0  0  0  0
 15 33  2  0  0  0  0
 16 37  2  0  0  0  0
 16 38  1  0  0  0  0
 17 18  1  0  0  0  0
 17 19  1  0  0  0  0
 17 21  1  0  0  0  0
 17 22  1  0  0  0  0
 18 39  1  0  0  0  0
 18 40  1  0  0  0  0
 19 20  2  0  0  0  0
 19 23  1  0  0  0  0
 20 24  1  0  0  0  0
 21 41  1  0  0  0  0
 21 42  1  0  0  0  0
 21 43  1  0  0  0  0
 22 44  1  0  0  0  0
 22 45  1  0  0  0  0
 22 46  1  0  0  0  0
 23 26  2  0  0  0  0
 23 48  1  0  0  0  0
 24 25  2  0  0  0  0
 24 49  1  0  0  0  0
 25 26  1  0  0  0  0
 26 50  1  0  0  0  0
 27 28  1  0  0  0  0
 28 29  2  0  0  0  0
 28 30  1  0  0  0  0
 30 32  2  0  0  0  0
 30 52  1  0  0  0  0
 31 34  1  0  0  0  0
 31 54  1  0  0  0  0
 31 55  1  0  0  0  0
 32 33  1  0  0  0  0
 32 56  1  0  0  0  0
 33 57  1  0  0  0  0
 34 35  2  0  0  0  0
 34 36  1  0  0  0  0
 35 37  1  0  0  0  0
 35 58  1  0  0  0  0
 36 38  2  0  0  0  0
 36 59  1  0  0  0  0
 37 60  1  0  0  0  0
 38 61  1  0  0  0  0
M  END
> <PUBCHEM_COMPOUND_CID>
16097729

> <PUBCHEM_COMPOUND_CANONICALIZED>
1

> <PUBCHEM_CACTVS_COMPLEXITY>
583

> <PUBCHEM_CACTVS_HBOND_ACCEPTOR>
13

> <PUBCHEM_CACTVS_HBOND_DONOR>
9

> <PUBCHEM_CACTVS_ROTATABLE_BOND>
5

> <PUBCHEM_CACTVS_SUBSKEYS>
AAADceB7vAMAAAAAAAAAAAAAAAAAAWAAAAA8WIAAAAAAAFgB8AAAHgAQCCAADgjBmgQ/8JLIEBCoQjd3dICCgCk1AiAJ2KE4ZNiIIPrA3dGEIYholALIyecYgcAPiAAAAAQCAAAQAAAACAQAAAAAAAAAAA==

> <PUBCHEM_IUPAC_OPENEYE_NAME>
N-(3,3-dimethylindolin-6-yl)-2-(4-pyridylmethylamino)pyridine-3-carboxamide;phosphoric acid

> <PUBCHEM_IUPAC_CAS_NAME>
N-(3,3-dimethyl-1,2-dihydroindol-6-yl)-2-(pyridin-4-ylmethylamino)-3-pyridinecarboxamide;phosphoric acid

> <PUBCHEM_IUPAC_NAME_MARKUP>
<I>N</I>-(3,3-dimethyl-1,2-dihydroindol-6-yl)-2-(pyridin-4-ylmethylamino)pyridine-3-carboxamide;phosphoric acid

> <PUBCHEM_IUPAC_NAME>
N-(3,3-dimethyl-1,2-dihydroindol-6-yl)-2-(pyridin-4-ylmethylamino)pyridine-3-carboxamide;phosphoric acid

> <PUBCHEM_IUPAC_SYSTEMATIC_NAME>
N-(3,3-dimethyl-1,2-dihydroindol-6-yl)-2-(pyridin-4-ylmethylamino)pyridine-3-carboxamide;phosphoric acid

> <PUBCHEM_IUPAC_TRADITIONAL_NAME>
N-(3,3-dimethylindolin-6-yl)-2-(4-pyridylmethylamino)nicotinamide;phosphoric acid

> <PUBCHEM_IUPAC_INCHI>
InChI=1S/C22H23N5O.2H3O4P/c1-22(2)14-26-19-12-16(5-6-18(19)22)27-21(28)17-4-3-9-24-20(17)25-13-15-7-10-23-11-8-15;2*1-5(2,3)4/h3-12,26H,13-14H2,1-2H3,(H,24,25)(H,27,28);2*(H3,1,2,3,4)

> <PUBCHEM_IUPAC_INCHIKEY>
ONDPWWDPQDCQNJ-UHFFFAOYSA-N

> <PUBCHEM_EXACT_MASS>
569.14405151

> <PUBCHEM_MOLECULAR_FORMULA>
C22H29N5O9P2

> <PUBCHEM_MOLECULAR_WEIGHT>
569.4

> <PUBCHEM_OPENEYE_CAN_SMILES>
CC1(CNC2=C1C=CC(=C2)NC(=O)C3=C(N=CC=C3)NCC4=CC=NC=C4)C.OP(=O)(O)O.OP(=O)(O)O

> <PUBCHEM_OPENEYE_ISO_SMILES>
CC1(CNC2=C1C=CC(=C2)NC(=O)C3=C(N=CC=C3)NCC4=CC=NC=C4)C.OP(=O)(O)O.OP(=O)(O)O

> <PUBCHEM_CACTVS_TPSA>
235

> <PUBCHEM_MONOISOTOPIC_WEIGHT>
569.14405151

> <PUBCHEM_TOTAL_CHARGE>
0

> <PUBCHEM_HEAVY_ATOM_COUNT>
38

> <PUBCHEM_ATOM_DEF_STEREO_COUNT>
0

> <PUBCHEM_ATOM_UDEF_STEREO_COUNT>
0

> <PUBCHEM_BOND_DEF_STEREO_COUNT>
0

> <PUBCHEM_BOND_UDEF_STEREO_COUNT>
0

> <PUBCHEM_ISOTOPIC_ATOM_COUNT>
0

> <PUBCHEM_COMPONENT_COUNT>
3

> <PUBCHEM_CACTVS_TAUTO_COUNT>
-1

> <PUBCHEM_COORDINATE_TYPE>
1
5
255

> <PUBCHEM_BONDANNOTATIONS>
15  29  8
15  33  8
16  37  8
16  38  8
19  20  8
19  23  8
20  24  8
23  26  8
24  25  8
25  26  8
28  29  8
28  30  8
30  32  8
32  33  8
34  35  8
34  36  8
35  37  8
36  38  8

$$$$
73438222
  -OEChem-11282412102D

 70 74  0     1  0  0  0  0  0999 V2000
    6.6353    1.3203    0.0000 F   0  0  0  0  0  0  0  0  0  0  0  0
    7.9244   -2.2708    0.0000 O   0  0  0  0  0  0  0  0  0  0  0  0
    5.9209    4.7099    0.0000 O   0  0  0  0  0  0  0  0  0  0  0  0
    6.2781   -2.8089    0.0000 N   0  0  0  0  0  0  0  0  0  0  0  0
    4.6783   -0.7016    0.0000 N   0  0  0  0  0  0  0  0  0  0  0  0
    5.2619    0.1031    0.0000 N   0  0  0  0  0  0  0  0  0  0  0  0
    2.8660   -0.8969    0.0000 N   0  0  0  0  0  0  0  0  0  0  0  0
    2.0000    0.6031    0.0000 N   0  0  0  0  0  0  0  0  0  0  0  0
    2.8660    2.1031    0.0000 N   0  0  0  0  0  0  0  0  0  0  0  0
    6.2316   -5.4542    0.0000 N   0  0  0  0  0  0  0  0  0  0  0  0
    4.9889   -1.6521    0.0000 C   0  0  2  0  0  0  0  0  0  0  0  0
    4.3211   -2.3965    0.0000 C   0  0  0  0  0  0  0  0  0  0  0  0
    5.9674   -1.8584    0.0000 C   0  0  0  0  0  0  0  0  0  0  0  0
    4.6318   -3.3470    0.0000 C   0  0  0  0  0  0  0  0  0  0  0  0
    5.6103   -3.5532    0.0000 C   0  0  0  0  0  0  0  0  0  0  0  0
    3.7320   -0.3969    0.0000 C   0  0  0  0  0  0  0  0  0  0  0  0
    7.2566   -3.0151    0.0000 C   0  0  0  0  0  0  0  0  0  0  0  0
    3.7320    0.6031    0.0000 C   0  0  0  0  0  0  0  0  0  0  0  0
    4.6783    0.9078    0.0000 C   0  0  0  0  0  0  0  0  0  0  0  0
    7.5673   -3.9656    0.0000 C   0  0  0  0  0  0  0  0  0  0  0  0
    8.8564   -5.1224    0.0000 C   0  0  0  0  0  0  0  0  0  0  0  0
    2.8660    1.1031    0.0000 C   0  0  0  0  0  0  0  0  0  0  0  0
    4.9889    1.8584    0.0000 C   0  0  0  0  0  0  0  0  0  0  0  0
    8.5458   -4.1718    0.0000 C   0  0  0  0  0  0  0  0  0  0  0  0
    9.1671   -6.0729    0.0000 C   0  0  0  0  0  0  0  0  0  0  0  0
    9.8070   -4.8117    0.0000 C   0  0  0  0  0  0  0  0  0  0  0  0
    7.9059   -5.4330    0.0000 C   0  0  0  0  0  0  0  0  0  0  0  0
    2.0000   -0.3969    0.0000 C   0  0  0  0  0  0  0  0  0  0  0  0
    5.9674    2.0646    0.0000 C   0  0  0  0  0  0  0  0  0  0  0  0
    4.3211    2.6027    0.0000 C   0  0  0  0  0  0  0  0  0  0  0  0
    6.8994   -4.7099    0.0000 C   0  0  0  0  0  0  0  0  0  0  0  0
    6.2781    3.0151    0.0000 C   0  0  0  0  0  0  0  0  0  0  0  0
    4.6318    3.5532    0.0000 C   0  0  0  0  0  0  0  0  0  0  0  0
    5.6103    3.7594    0.0000 C   0  0  0  0  0  0  0  0  0  0  0  0
    6.8994    4.9161    0.0000 C   0  0  0  0  0  0  0  0  0  0  0  0
    7.2101    5.8667    0.0000 C   0  0  0  0  0  0  0  0  0  0  0  0
    7.5673    4.1718    0.0000 C   0  0  0  0  0  0  0  0  0  0  0  0
    8.1886    6.0729    0.0000 C   0  0  0  0  0  0  0  0  0  0  0  0
    8.5458    4.3781    0.0000 C   0  0  0  0  0  0  0  0  0  0  0  0
    8.8564    5.3286    0.0000 C   0  0  0  0  0  0  0  0  0  0  0  0
    5.4030   -1.1907    0.0000 H   0  0  0  0  0  0  0  0  0  0  0  0
    3.9385   -1.9085    0.0000 H   0  0  0  0  0  0  0  0  0  0  0  0
    3.7742   -2.6885    0.0000 H   0  0  0  0  0  0  0  0  0  0  0  0
    6.5812   -1.7710    0.0000 H   0  0  0  0  0  0  0  0  0  0  0  0
    5.9880   -1.2387    0.0000 H   0  0  0  0  0  0  0  0  0  0  0  0
    4.0179   -3.4343    0.0000 H   0  0  0  0  0  0  0  0  0  0  0  0
    4.6112   -3.9666    0.0000 H   0  0  0  0  0  0  0  0  0  0  0  0
    5.3790   -4.1284    0.0000 H   0  0  0  0  0  0  0  0  0  0  0  0
    6.1366   -3.8808    0.0000 H   0  0  0  0  0  0  0  0  0  0  0  0
    8.9598   -3.7104    0.0000 H   0  0  0  0  0  0  0  0  0  0  0  0
    8.5778   -6.2655    0.0000 H   0  0  0  0  0  0  0  0  0  0  0  0
    9.3597   -6.6622    0.0000 H   0  0  0  0  0  0  0  0  0  0  0  0
    9.7564   -5.8803    0.0000 H   0  0  0  0  0  0  0  0  0  0  0  0
    9.9996   -5.4010    0.0000 H   0  0  0  0  0  0  0  0  0  0  0  0
   10.3963   -4.6191    0.0000 H   0  0  0  0  0  0  0  0  0  0  0  0
    9.6144   -4.2224    0.0000 H   0  0  0  0  0  0  0  0  0  0  0  0
    7.7133   -4.8437    0.0000 H   0  0  0  0  0  0  0  0  0  0  0  0
    7.3166   -5.6256    0.0000 H   0  0  0  0  0  0  0  0  0  0  0  0
    8.0985   -6.0224    0.0000 H   0  0  0  0  0  0  0  0  0  0  0  0
    1.4631   -0.7069    0.0000 H   0  0  0  0  0  0  0  0  0  0  0  0
    3.7144    2.4748    0.0000 H   0  0  0  0  0  0  0  0  0  0  0  0
    2.3291    2.4131    0.0000 H   0  0  0  0  0  0  0  0  0  0  0  0
    3.4030    2.4131    0.0000 H   0  0  0  0  0  0  0  0  0  0  0  0
    6.8848    3.1430    0.0000 H   0  0  0  0  0  0  0  0  0  0  0  0
    4.2177    4.0146    0.0000 H   0  0  0  0  0  0  0  0  0  0  0  0
    6.7960    6.3281    0.0000 H   0  0  0  0  0  0  0  0  0  0  0  0
    7.3747    3.5825    0.0000 H   0  0  0  0  0  0  0  0  0  0  0  0
    8.3812    6.6622    0.0000 H   0  0  0  0  0  0  0  0  0  0  0  0
    8.9598    3.9166    0.0000 H   0  0  0  0  0  0  0  0  0  0  0  0
    9.4631    5.4564    0.0000 H   0  0  0  0  0  0  0  0  0  0  0  0
  1 29  1  0  0  0  0
  2 17  2  0  0  0  0
  3 34  1  0  0  0  0
  3 35  1  0  0  0  0
  4 13  1  0  0  0  0
  4 15  1  0  0  0  0
  4 17  1  0  0  0  0
  5  6  1  0  0  0  0
 11  5  1  1  0  0  0
  5 16  1  0  0  0  0
  6 19  2  0  0  0  0
  7 16  2  0  0  0  0
  7 28  1  0  0  0  0
  8 22  1  0  0  0  0
  8 28  2  0  0  0  0
  9 22  1  0  0  0  0
  9 62  1  0  0  0  0
  9 63  1  0  0  0  0
 10 31  3  0  0  0  0
 11 12  1  0  0  0  0
 11 13  1  0  0  0  0
 11 41  1  0  0  0  0
 12 14  1  0  0  0  0
 12 42  1  0  0  0  0
 12 43  1  0  0  0  0
 13 44  1  0  0  0  0
 13 45  1  0  0  0  0
 14 15  1  0  0  0  0
 14 46  1  0  0  0  0
 14 47  1  0  0  0  0
 15 48  1  0  0  0  0
 15 49  1  0  0  0  0
 16 18  1  0  0  0  0
 17 20  1  0  0  0  0
 18 19  1  0  0  0  0
 18 22  2  0  0  0  0
 19 23  1  0  0  0  0
 20 24  2  0  0  0  0
 20 31  1  0  0  0  0
 21 24  1  0  0  0  0
 21 25  1  0  0  0  0
 21 26  1  0  0  0  0
 21 27  1  0  0  0  0
 23 29  2  0  0  0  0
 23 30  1  0  0  0  0
 24 50  1  0  0  0  0
 25 51  1  0  0  0  0
 25 52  1  0  0  0  0
 25 53  1  0  0  0  0
 26 54  1  0  0  0  0
 26 55  1  0  0  0  0
 26 56  1  0  0  0  0
 27 57  1  0  0  0  0
 27 58  1  0  0  0  0
 27 59  1  0  0  0  0
 28 60  1  0  0  0  0
 29 32  1  0  0  0  0
 30 33  2  0  0  0  0
 30 61  1  0  0  0  0
 32 34  2  0  0  0  0
 32 64  1  0  0  0  0
 33 34  1  0  0  0  0
 33 65  1  0  0  0  0
 35 36  2  0  0  0  0
 35 37  1  0  0  0  0
 36 38  1  0  0  0  0
 36 66  1  0  0  0  0
 37 39  2  0  0  0  0
 37 67  1  0  0  0  0
 38 40  2  0  0  0  0
 38 68  1  0  0  0  0
 39 40  1  0  0  0  0
 39 69  1  0  0  0  0
 40 70  1  0  0  0  0
M  END
> <PUBCHEM_COMPOUND_CID>
73438222

> <PUBCHEM_COMPOUND_CANONICALIZED>
1

> <PUBCHEM_CACTVS_COMPLEXITY>
971

> <PUBCHEM_CACTVS_HBOND_ACCEPTOR>
8

> <PUBCHEM_CACTVS_HBOND_DONOR>
1

> <PUBCHEM_CACTVS_ROTATABLE_BOND>
6

> <PUBCHEM_CACTVS_SUBSKEYS>
AAADceB7sQAAAAAAAAAAAAAAAAAAAWAAAAA8eIEAAAAAAFgB/AAAHwAYAAAADizBnww3tt9IFAC6BydzdACyjCsxoKAd2CEuTNiM7qLE+duWvCjszhPI6aeQ0OEOIAAAAAAAAABAAAAAAAAAAAAAAAAAAA==

> <PUBCHEM_IUPAC_OPENEYE_NAME>
(E)-2-[(3R)-3-[4-amino-3-(2-fluoro-4-phenoxy-phenyl)pyrazolo[3,4-d]pyrimidin-1-yl]piperidine-1-carbonyl]-4,4-dimethyl-pent-2-enenitrile

> <PUBCHEM_IUPAC_CAS_NAME>
(E)-2-[[(3R)-3-[4-amino-3-(2-fluoro-4-phenoxyphenyl)-1-pyrazolo[3,4-d]pyrimidinyl]-1-piperidinyl]-oxomethyl]-4,4-dimethyl-2-pentenenitrile

> <PUBCHEM_IUPAC_NAME_MARKUP>
(<I>E</I>)-2-[(3<I>R</I>)-3-[4-amino-3-(2-fluoro-4-phenoxyphenyl)pyrazolo[3,4-d]pyrimidin-1-yl]piperidine-1-carbonyl]-4,4-dimethylpent-2-enenitrile

> <PUBCHEM_IUPAC_NAME>
(E)-2-[(3R)-3-[4-amino-3-(2-fluoro-4-phenoxyphenyl)pyrazolo[3,4-d]pyrimidin-1-yl]piperidine-1-carbonyl]-4,4-dimethylpent-2-enenitrile

> <PUBCHEM_IUPAC_SYSTEMATIC_NAME>
(E)-2-[(3R)-3-[4-azanyl-3-(2-fluoranyl-4-phenoxy-phenyl)pyrazolo[3,4-d]pyrimidin-1-yl]piperidin-1-yl]carbonyl-4,4-dimethyl-pent-2-enenitrile

> <PUBCHEM_IUPAC_TRADITIONAL_NAME>
(E)-2-[(3R)-3-[4-amino-3-(2-fluoro-4-phenoxy-phenyl)pyrazolo[3,4-d]pyrimidin-1-yl]piperidine-1-carbonyl]-4,4-dimethyl-pent-2-enenitrile

> <PUBCHEM_IUPAC_INCHI>
InChI=1S/C30H30FN7O2/c1-30(2,3)15-19(16-32)29(39)37-13-7-8-20(17-37)38-28-25(27(33)34-18-35-28)26(36-38)23-12-11-22(14-24(23)31)40-21-9-5-4-6-10-21/h4-6,9-12,14-15,18,20H,7-8,13,17H2,1-3H3,(H2,33,34,35)/b19-15+/t20-/m1/s1

> <PUBCHEM_IUPAC_INCHIKEY>
KZMQPYCXSAGLTB-ZWUNQBBJSA-N

> <PUBCHEM_XLOGP3_AA>
5.1

> <PUBCHEM_EXACT_MASS>
539.24450139

> <PUBCHEM_MOLECULAR_FORMULA>
C30H30FN7O2

> <PUBCHEM_MOLECULAR_WEIGHT>
539.6

> <PUBCHEM_OPENEYE_CAN_SMILES>
CC(C)(C)C=C(C#N)C(=O)N1CCCC(C1)N2C3=NC=NC(=C3C(=N2)C4=C(C=C(C=C4)OC5=CC=CC=C5)F)N

> <PUBCHEM_OPENEYE_ISO_SMILES>
CC(C)(C)/C=C(\C#N)/C(=O)N1CCC[C@H](C1)N2C3=NC=NC(=C3C(=N2)C4=C(C=C(C=C4)OC5=CC=CC=C5)F)N

> <PUBCHEM_CACTVS_TPSA>
123

> <PUBCHEM_MONOISOTOPIC_WEIGHT>
539.24450139

> <PUBCHEM_TOTAL_CHARGE>
0

> <PUBCHEM_HEAVY_ATOM_COUNT>
40

> <PUBCHEM_ATOM_DEF_STEREO_COUNT>
1

> <PUBCHEM_ATOM_UDEF_STEREO_COUNT>
0

> <PUBCHEM_BOND_DEF_STEREO_COUNT>
1

> <PUBCHEM_BOND_UDEF_STEREO_COUNT>
0

> <PUBCHEM_ISOTOPIC_ATOM_COUNT>
0

> <PUBCHEM_COMPONENT_COUNT>
1

> <PUBCHEM_CACTVS_TAUTO_COUNT>
-1

> <PUBCHEM_COORDINATE_TYPE>
1
5
255

> <PUBCHEM_BONDANNOTATIONS>
16  18  8
18  19  8
18  22  8
23  29  8
23  30  8
29  32  8
30  33  8
32  34  8
33  34  8
35  36  8
35  37  8
36  38  8
37  39  8
38  40  8
39  40  8
11  5  5
5  16  8
5  6  8
6  19  8
7  16  8
7  28  8
8  22  8
8  28  8

$$$$
118107483
  -OEChem-11282412102D

 64 67  0     0  0  0  0  0  0999 V2000
    4.7320   -0.8770    0.0000 F   0  0  0  0  0  0  0  0  0  0  0  0
    9.9282   -0.8770    0.0000 F   0  0  0  0  0  0  0  0  0  0  0  0
    7.3301   -2.3770    0.0000 O   0  0  0  0  0  0  0  0  0  0  0  0
    9.9282    2.1230    0.0000 O   0  0  0  0  0  0  0  0  0  0  0  0
   13.3923    1.1230    0.0000 O   0  0  0  0  0  0  0  0  0  0  0  0
    6.4641   -0.8770    0.0000 N   0  0  0  0  0  0  0  0  0  0  0  0
    7.3301    2.6230    0.0000 N   0  0  0  0  0  0  0  0  0  0  0  0
   12.5263    2.6230    0.0000 N   0  0  0  0  0  0  0  0  0  0  0  0
    8.1962    4.1230    0.0000 N   0  0  0  0  0  0  0  0  0  0  0  0
    9.9282    4.1230    0.0000 N   0  0  0  0  0  0  0  0  0  0  0  0
    3.0000   -3.8770    0.0000 C   0  0  0  0  0  0  0  0  0  0  0  0
    2.0000   -3.8770    0.0000 C   0  0  0  0  0  0  0  0  0  0  0  0
    2.5000   -4.7430    0.0000 C   0  0  0  0  0  0  0  0  0  0  0  0
    3.8660   -3.3770    0.0000 C   0  0  0  0  0  0  0  0  0  0  0  0
    3.8660   -2.3770    0.0000 C   0  0  0  0  0  0  0  0  0  0  0  0
    4.7320   -3.8770    0.0000 C   0  0  0  0  0  0  0  0  0  0  0  0
    4.7320   -1.8770    0.0000 C   0  0  0  0  0  0  0  0  0  0  0  0
    5.5981   -3.3770    0.0000 C   0  0  0  0  0  0  0  0  0  0  0  0
    5.5981   -2.3770    0.0000 C   0  0  0  0  0  0  0  0  0  0  0  0
    6.4641   -1.8770    0.0000 C   0  0  0  0  0  0  0  0  0  0  0  0
    7.3301   -0.3770    0.0000 C   0  0  0  0  0  0  0  0  0  0  0  0
    7.3301    0.6230    0.0000 C   0  0  0  0  0  0  0  0  0  0  0  0
    8.1962    1.1230    0.0000 C   0  0  0  0  0  0  0  0  0  0  0  0
    8.1962   -0.8770    0.0000 C   0  0  0  0  0  0  0  0  0  0  0  0
    8.1962    2.1230    0.0000 C   0  0  0  0  0  0  0  0  0  0  0  0
    9.0622    0.6230    0.0000 C   0  0  0  0  0  0  0  0  0  0  0  0
    6.4641    1.1230    0.0000 C   0  0  0  0  0  0  0  0  0  0  0  0
    9.0622   -0.3770    0.0000 C   0  0  0  0  0  0  0  0  0  0  0  0
    9.0622    2.6230    0.0000 C   0  0  0  0  0  0  0  0  0  0  0  0
   10.7942    2.6230    0.0000 C   0  0  0  0  0  0  0  0  0  0  0  0
   11.6603    2.1230    0.0000 C   0  0  0  0  0  0  0  0  0  0  0  0
    9.0622    3.6230    0.0000 C   0  0  0  0  0  0  0  0  0  0  0  0
    7.3301    3.6230    0.0000 C   0  0  0  0  0  0  0  0  0  0  0  0
   12.5263    3.6230    0.0000 C   0  0  0  0  0  0  0  0  0  0  0  0
   13.3923    2.1230    0.0000 C   0  0  0  0  0  0  0  0  0  0  0  0
   14.2583    2.6230    0.0000 C   0  0  0  0  0  0  0  0  0  0  0  0
   15.1244    2.1230    0.0000 C   0  0  0  0  0  0  0  0  0  0  0  0
    2.8395   -3.2781    0.0000 H   0  0  0  0  0  0  0  0  0  0  0  0
    1.8923   -3.2664    0.0000 H   0  0  0  0  0  0  0  0  0  0  0  0
    1.4174   -4.0890    0.0000 H   0  0  0  0  0  0  0  0  0  0  0  0
    2.0250   -5.1415    0.0000 H   0  0  0  0  0  0  0  0  0  0  0  0
    2.9750   -5.1415    0.0000 H   0  0  0  0  0  0  0  0  0  0  0  0
    3.3291   -2.0670    0.0000 H   0  0  0  0  0  0  0  0  0  0  0  0
    4.7320   -4.4970    0.0000 H   0  0  0  0  0  0  0  0  0  0  0  0
    6.1350   -3.6870    0.0000 H   0  0  0  0  0  0  0  0  0  0  0  0
    5.9272   -0.5670    0.0000 H   0  0  0  0  0  0  0  0  0  0  0  0
    8.1962   -1.4970    0.0000 H   0  0  0  0  0  0  0  0  0  0  0  0
    9.5991    0.9330    0.0000 H   0  0  0  0  0  0  0  0  0  0  0  0
    6.7741    1.6600    0.0000 H   0  0  0  0  0  0  0  0  0  0  0  0
    5.9272    1.4330    0.0000 H   0  0  0  0  0  0  0  0  0  0  0  0
    6.1541    0.5861    0.0000 H   0  0  0  0  0  0  0  0  0  0  0  0
   11.1928    3.0980    0.0000 H   0  0  0  0  0  0  0  0  0  0  0  0
   10.3957    3.0980    0.0000 H   0  0  0  0  0  0  0  0  0  0  0  0
   11.2617    1.6481    0.0000 H   0  0  0  0  0  0  0  0  0  0  0  0
   12.0588    1.6481    0.0000 H   0  0  0  0  0  0  0  0  0  0  0  0
    6.7932    3.9330    0.0000 H   0  0  0  0  0  0  0  0  0  0  0  0
   13.1463    3.6230    0.0000 H   0  0  0  0  0  0  0  0  0  0  0  0
   12.5263    4.2430    0.0000 H   0  0  0  0  0  0  0  0  0  0  0  0
   11.9063    3.6230    0.0000 H   0  0  0  0  0  0  0  0  0  0  0  0
    9.9282    4.7430    0.0000 H   0  0  0  0  0  0  0  0  0  0  0  0
   10.4651    3.8130    0.0000 H   0  0  0  0  0  0  0  0  0  0  0  0
   14.2583    3.2430    0.0000 H   0  0  0  0  0  0  0  0  0  0  0  0
   15.1244    1.5030    0.0000 H   0  0  0  0  0  0  0  0  0  0  0  0
   15.6613    2.4330    0.0000 H   0  0  0  0  0  0  0  0  0  0  0  0
  1 17  1  0  0  0  0
  2 28  1  0  0  0  0
  3 20  2  0  0  0  0
  4 29  1  0  0  0  0
  4 30  1  0  0  0  0
  5 35  2  0  0  0  0
  6 20  1  0  0  0  0
  6 21  1  0  0  0  0
  6 46  1  0  0  0  0
  7 25  1  0  0  0  0
  7 33  2  0  0  0  0
  8 31  1  0  0  0  0
  8 34  1  0  0  0  0
  8 35  1  0  0  0  0
  9 32  2  0  0  0  0
  9 33  1  0  0  0  0
 10 32  1  0  0  0  0
 10 60  1  0  0  0  0
 10 61  1  0  0  0  0
 11 12  1  0  0  0  0
 11 13  1  0  0  0  0
 11 14  1  0  0  0  0
 11 38  1  0  0  0  0
 12 13  1  0  0  0  0
 12 39  1  0  0  0  0
 12 40  1  0  0  0  0
 13 41  1  0  0  0  0
 13 42  1  0  0  0  0
 14 15  2  0  0  0  0
 14 16  1  0  0  0  0
 15 17  1  0  0  0  0
 15 43  1  0  0  0  0
 16 18  2  0  0  0  0
 16 44  1  0  0  0  0
 17 19  2  0  0  0  0
 18 19  1  0  0  0  0
 18 45  1  0  0  0  0
 19 20  1  0  0  0  0
 21 22  1  0  0  0  0
 21 24  2  0  0  0  0
 22 23  2  0  0  0  0
 22 27  1  0  0  0  0
 23 25  1  0  0  0  0
 23 26  1  0  0  0  0
 24 28  1  0  0  0  0
 24 47  1  0  0  0  0
 25 29  2  0  0  0  0
 26 28  2  0  0  0  0
 26 48  1  0  0  0  0
 27 49  1  0  0  0  0
 27 50  1  0  0  0  0
 27 51  1  0  0  0  0
 29 32  1  0  0  0  0
 30 31  1  0  0  0  0
 30 52  1  0  0  0  0
 30 53  1  0  0  0  0
 31 54  1  0  0  0  0
 31 55  1  0  0  0  0
 33 56  1  0  0  0  0
 34 57  1  0  0  0  0
 34 58  1  0  0  0  0
 34 59  1  0  0  0  0
 35 36  1  0  0  0  0
 36 37  2  0  0  0  0
 36 62  1  0  0  0  0
 37 63  1  0  0  0  0
 37 64  1  0  0  0  0
M  END
> <PUBCHEM_COMPOUND_CID>
118107483

> <PUBCHEM_COMPOUND_CANONICALIZED>
1

> <PUBCHEM_CACTVS_COMPLEXITY>
815

> <PUBCHEM_CACTVS_HBOND_ACCEPTOR>
8

> <PUBCHEM_CACTVS_HBOND_DONOR>
2

> <PUBCHEM_CACTVS_ROTATABLE_BOND>
9

> <PUBCHEM_CACTVS_SUBSKEYS>
AAADceB7sYAAAAAAAAAAAAAAGAAAAAAAAAA8YIAAAAAAAAAB0AAAHwAQAAAADQzhng439pfIFACoAydzdASCiCk1YqAJ2CEtZNiOKLLE3dOHLSjs1gPYyaeY2OOOwAAAQAASAACAAACAACQAAAAAAAAAAA==

> <PUBCHEM_IUPAC_OPENEYE_NAME>
N-[3-[6-amino-5-[2-[methyl(prop-2-enoyl)amino]ethoxy]pyrimidin-4-yl]-5-fluoro-2-methyl-phenyl]-4-cyclopropyl-2-fluoro-benzamide

> <PUBCHEM_IUPAC_CAS_NAME>
N-[3-[6-amino-5-[2-[methyl(1-oxoprop-2-enyl)amino]ethoxy]-4-pyrimidinyl]-5-fluoro-2-methylphenyl]-4-cyclopropyl-2-fluorobenzamide

> <PUBCHEM_IUPAC_NAME_MARKUP>
<I>N</I>-[3-[6-amino-5-[2-[methyl(prop-2-enoyl)amino]ethoxy]pyrimidin-4-yl]-5-fluoro-2-methylphenyl]-4-cyclopropyl-2-fluorobenzamide

> <PUBCHEM_IUPAC_NAME>
N-[3-[6-amino-5-[2-[methyl(prop-2-enoyl)amino]ethoxy]pyrimidin-4-yl]-5-fluoro-2-methylphenyl]-4-cyclopropyl-2-fluorobenzamide

> <PUBCHEM_IUPAC_SYSTEMATIC_NAME>
N-[3-[6-azanyl-5-[2-[methyl(prop-2-enoyl)amino]ethoxy]pyrimidin-4-yl]-5-fluoranyl-2-methyl-phenyl]-4-cyclopropyl-2-fluoranyl-benzamide

> <PUBCHEM_IUPAC_TRADITIONAL_NAME>
N-[3-[5-[2-[acryloyl(methyl)amino]ethoxy]-6-amino-pyrimidin-4-yl]-5-fluoro-2-methyl-phenyl]-4-cyclopropyl-2-fluoro-benzamide

> <PUBCHEM_IUPAC_INCHI>
InChI=1S/C27H27F2N5O3/c1-4-23(35)34(3)9-10-37-25-24(31-14-32-26(25)30)20-12-18(28)13-22(15(20)2)33-27(36)19-8-7-17(11-21(19)29)16-5-6-16/h4,7-8,11-14,16H,1,5-6,9-10H2,2-3H3,(H,33,36)(H2,30,31,32)

> <PUBCHEM_IUPAC_INCHIKEY>
CUABMPOJOBCXJI-UHFFFAOYSA-N

> <PUBCHEM_XLOGP3_AA>
3.9

> <PUBCHEM_EXACT_MASS>
507.20819606

> <PUBCHEM_MOLECULAR_FORMULA>
C27H27F2N5O3

> <PUBCHEM_MOLECULAR_WEIGHT>
507.5

> <PUBCHEM_OPENEYE_CAN_SMILES>
CC1=C(C=C(C=C1NC(=O)C2=C(C=C(C=C2)C3CC3)F)F)C4=C(C(=NC=N4)N)OCCN(C)C(=O)C=C

> <PUBCHEM_OPENEYE_ISO_SMILES>
CC1=C(C=C(C=C1NC(=O)C2=C(C=C(C=C2)C3CC3)F)F)C4=C(C(=NC=N4)N)OCCN(C)C(=O)C=C

> <PUBCHEM_CACTVS_TPSA>
110

> <PUBCHEM_MONOISOTOPIC_WEIGHT>
507.20819606

> <PUBCHEM_TOTAL_CHARGE>
0

> <PUBCHEM_HEAVY_ATOM_COUNT>
37

> <PUBCHEM_ATOM_DEF_STEREO_COUNT>
0

> <PUBCHEM_ATOM_UDEF_STEREO_COUNT>
0

> <PUBCHEM_BOND_DEF_STEREO_COUNT>
0

> <PUBCHEM_BOND_UDEF_STEREO_COUNT>
0

> <PUBCHEM_ISOTOPIC_ATOM_COUNT>
0

> <PUBCHEM_COMPONENT_COUNT>
1

> <PUBCHEM_CACTVS_TAUTO_COUNT>
-1

> <PUBCHEM_COORDINATE_TYPE>
1
5
255

> <PUBCHEM_BONDANNOTATIONS>
14  15  8
14  16  8
15  17  8
16  18  8
17  19  8
18  19  8
21  22  8
21  24  8
22  23  8
23  26  8
24  28  8
25  29  8
26  28  8
29  32  8
7  25  8
7  33  8
9  32  8
9  33  8

$$$$
67330085
  -OEChem-11282412102D

 60 63  0     1  0  0  0  0  0999 V2000
    4.8888    0.8660    0.0000 S   0  0  0  0  0  0  0  0  0  0  0  0
    0.0544    6.6537    0.0000 F   0  0  0  0  0  0  0  0  0  0  0  0
    3.0270    3.9772    0.0000 F   0  0  0  0  0  0  0  0  0  0  0  0
    9.7776   11.4842    0.0000 O   0  0  0  0  0  0  0  0  0  0  0  0
    8.3714    7.8956    0.0000 O   0  0  0  0  0  0  0  0  0  0  0  0
    5.7548    1.3660    0.0000 O   0  0  0  0  0  0  0  0  0  0  0  0
    4.0228    0.3660    0.0000 O   0  0  0  0  0  0  0  0  0  0  0  0
    4.3888    1.7320    0.0000 O   0  0  0  0  0  0  0  0  0  0  0  0
    5.3888    0.0000    0.0000 O   0  0  0  0  0  0  0  0  0  0  0  0
    2.8701    7.6785    0.0000 N   0  0  3  0  0  0  0  0  0  0  0  0
    8.0142    9.5905    0.0000 N   0  0  0  0  0  0  0  0  0  0  0  0
    4.6021    7.6785    0.0000 N   0  0  0  0  0  0  0  0  0  0  0  0
    5.4682    6.1785    0.0000 N   0  0  0  0  0  0  0  0  0  0  0  0
    6.7250    8.4337    0.0000 N   0  0  0  0  0  0  0  0  0  0  0  0
    6.4144    5.8737    0.0000 N   0  0  0  0  0  0  0  0  0  0  0  0
    1.9565    7.2717    0.0000 C   0  0  2  0  0  0  0  0  0  0  0  0
    1.2874    8.0149    0.0000 C   0  0  0  0  0  0  0  0  0  0  0  0
    1.7874    8.8809    0.0000 C   0  0  0  0  0  0  0  0  0  0  0  0
    2.7656    8.6730    0.0000 C   0  0  0  0  0  0  0  0  0  0  0  0
    1.7486    6.2936    0.0000 C   0  0  0  0  0  0  0  0  0  0  0  0
    3.7361    7.1785    0.0000 C   0  0  0  0  0  0  0  0  0  0  0  0
    8.9675   10.8978    0.0000 C   0  0  1  0  0  0  0  0  0  0  0  0
    8.0170   11.2085    0.0000 C   0  0  0  0  0  0  0  0  0  0  0  0
    8.9658    9.8978    0.0000 C   0  0  0  0  0  0  0  0  0  0  0  0
    7.4278   10.4005    0.0000 C   0  0  0  0  0  0  0  0  0  0  0  0
    0.7976    5.9846    0.0000 C   0  0  0  0  0  0  0  0  0  0  0  0
    2.4918    5.6245    0.0000 C   0  0  0  0  0  0  0  0  0  0  0  0
    3.7361    6.1785    0.0000 C   0  0  0  0  0  0  0  0  0  0  0  0
    5.4682    7.1785    0.0000 C   0  0  0  0  0  0  0  0  0  0  0  0
    7.7035    8.6399    0.0000 C   0  0  0  0  0  0  0  0  0  0  0  0
    6.4144    7.4832    0.0000 C   0  0  0  0  0  0  0  0  0  0  0  0
    4.6021    5.6785    0.0000 C   0  0  0  0  0  0  0  0  0  0  0  0
    2.2839    4.6463    0.0000 C   0  0  0  0  0  0  0  0  0  0  0  0
    0.5897    5.0064    0.0000 C   0  0  0  0  0  0  0  0  0  0  0  0
    1.3328    4.3373    0.0000 C   0  0  0  0  0  0  0  0  0  0  0  0
    6.9980    6.6785    0.0000 C   0  0  0  0  0  0  0  0  0  0  0  0
    1.3577    7.1113    0.0000 H   0  0  0  0  0  0  0  0  0  0  0  0
    0.7858    8.3793    0.0000 H   0  0  0  0  0  0  0  0  0  0  0  0
    0.8725    7.5541    0.0000 H   0  0  0  0  0  0  0  0  0  0  0  0
    1.9790    9.4706    0.0000 H   0  0  0  0  0  0  0  0  0  0  0  0
    1.2210    9.1331    0.0000 H   0  0  0  0  0  0  0  0  0  0  0  0
    3.3856    8.6730    0.0000 H   0  0  0  0  0  0  0  0  0  0  0  0
    2.8304    9.2896    0.0000 H   0  0  0  0  0  0  0  0  0  0  0  0
    8.8716   11.5104    0.0000 H   0  0  0  0  0  0  0  0  0  0  0  0
    8.2702   11.7745    0.0000 H   0  0  0  0  0  0  0  0  0  0  0  0
    7.4806   11.5194    0.0000 H   0  0  0  0  0  0  0  0  0  0  0  0
    9.0936    9.2912    0.0000 H   0  0  0  0  0  0  0  0  0  0  0  0
    9.5825    9.9616    0.0000 H   0  0  0  0  0  0  0  0  0  0  0  0
    6.9678   10.8161    0.0000 H   0  0  0  0  0  0  0  0  0  0  0  0
    6.9664    9.9864    0.0000 H   0  0  0  0  0  0  0  0  0  0  0  0
    3.0814    5.8160    0.0000 H   0  0  0  0  0  0  0  0  0  0  0  0
    3.1992    5.8685    0.0000 H   0  0  0  0  0  0  0  0  0  0  0  0
    4.6021    5.0585    0.0000 H   0  0  0  0  0  0  0  0  0  0  0  0
    6.3110    8.8952    0.0000 H   0  0  0  0  0  0  0  0  0  0  0  0
    0.0000    4.8148    0.0000 H   0  0  0  0  0  0  0  0  0  0  0  0
    9.7138   12.1009    0.0000 H   0  0  0  0  0  0  0  0  0  0  0  0
    1.2039    3.7308    0.0000 H   0  0  0  0  0  0  0  0  0  0  0  0
    7.6180    6.6785    0.0000 H   0  0  0  0  0  0  0  0  0  0  0  0
    6.2917    1.0560    0.0000 H   0  0  0  0  0  0  0  0  0  0  0  0
    3.4858    0.6760    0.0000 H   0  0  0  0  0  0  0  0  0  0  0  0
  1  6  1  0  0  0  0
  1  7  1  0  0  0  0
  1  8  2  0  0  0  0
  1  9  2  0  0  0  0
  2 26  1  0  0  0  0
  3 33  1  0  0  0  0
 22  4  1  6  0  0  0
  4 56  1  0  0  0  0
  5 30  2  0  0  0  0
  6 59  1  0  0  0  0
  7 60  1  0  0  0  0
 10 16  1  0  0  0  0
 10 19  1  0  0  0  0
 10 21  1  0  0  0  0
 11 24  1  0  0  0  0
 11 25  1  0  0  0  0
 11 30  1  0  0  0  0
 12 21  2  0  0  0  0
 12 29  1  0  0  0  0
 13 15  1  0  0  0  0
 13 29  1  0  0  0  0
 13 32  1  0  0  0  0
 14 30  1  0  0  0  0
 14 31  1  0  0  0  0
 14 54  1  0  0  0  0
 15 36  2  0  0  0  0
 16 17  1  0  0  0  0
 16 20  1  1  0  0  0
 16 37  1  0  0  0  0
 17 18  1  0  0  0  0
 17 38  1  0  0  0  0
 17 39  1  0  0  0  0
 18 19  1  0  0  0  0
 18 40  1  0  0  0  0
 18 41  1  0  0  0  0
 19 42  1  0  0  0  0
 19 43  1  0  0  0  0
 20 26  2  0  0  0  0
 20 27  1  0  0  0  0
 21 28  1  0  0  0  0
 22 23  1  0  0  0  0
 22 24  1  0  0  0  0
 22 44  1  0  0  0  0
 23 25  1  0  0  0  0
 23 45  1  0  0  0  0
 23 46  1  0  0  0  0
 24 47  1  0  0  0  0
 24 48  1  0  0  0  0
 25 49  1  0  0  0  0
 25 50  1  0  0  0  0
 26 34  1  0  0  0  0
 27 33  2  0  0  0  0
 27 51  1  0  0  0  0
 28 32  2  0  0  0  0
 28 52  1  0  0  0  0
 29 31  2  0  0  0  0
 31 36  1  0  0  0  0
 32 53  1  0  0  0  0
 33 35  1  0  0  0  0
 34 35  2  0  0  0  0
 34 55  1  0  0  0  0
 35 57  1  0  0  0  0
 36 58  1  0  0  0  0
M  END
> <PUBCHEM_COMPOUND_CID>
67330085

> <PUBCHEM_COMPOUND_CANONICALIZED>
1

> <PUBCHEM_CACTVS_COMPLEXITY>
741

> <PUBCHEM_CACTVS_HBOND_ACCEPTOR>
11

> <PUBCHEM_CACTVS_HBOND_DONOR>
4

> <PUBCHEM_CACTVS_ROTATABLE_BOND>
3

> <PUBCHEM_CACTVS_SUBSKEYS>
AAADceB7uYBAAAAAAAAAAAAAAAAAAWLFgAA8QAAAAAAAAFgB8AAAHwAYCAAADDzhmw498J/IEoCqAjZndDCShCsxkqAd2CA4dJiKeOLA2VGU5AhqngLYiCcQgIAOAAAAAAAAAAAAAAAAAAAAAAAAAAAAAA==

> <PUBCHEM_IUPAC_OPENEYE_NAME>
(3S)-N-[5-[(2R)-2-(2,5-difluorophenyl)pyrrolidin-1-yl]pyrazolo[1,5-a]pyrimidin-3-yl]-3-hydroxy-pyrrolidine-1-carboxamide;sulfuric acid

> <PUBCHEM_IUPAC_CAS_NAME>
(3S)-N-[5-[(2R)-2-(2,5-difluorophenyl)-1-pyrrolidinyl]-3-pyrazolo[1,5-a]pyrimidinyl]-3-hydroxy-1-pyrrolidinecarboxamide;sulfuric acid

> <PUBCHEM_IUPAC_NAME_MARKUP>
(3<I>S</I>)-<I>N</I>-[5-[(2<I>R</I>)-2-(2,5-difluorophenyl)pyrrolidin-1-yl]pyrazolo[1,5-a]pyrimidin-3-yl]-3-hydroxypyrrolidine-1-carboxamide;sulfuric acid

> <PUBCHEM_IUPAC_NAME>
(3S)-N-[5-[(2R)-2-(2,5-difluorophenyl)pyrrolidin-1-yl]pyrazolo[1,5-a]pyrimidin-3-yl]-3-hydroxypyrrolidine-1-carboxamide;sulfuric acid

> <PUBCHEM_IUPAC_SYSTEMATIC_NAME>
(3S)-N-[5-[(2R)-2-[2,5-bis(fluoranyl)phenyl]pyrrolidin-1-yl]pyrazolo[1,5-a]pyrimidin-3-yl]-3-oxidanyl-pyrrolidine-1-carboxamide;sulfuric acid

> <PUBCHEM_IUPAC_TRADITIONAL_NAME>
(3S)-N-[5-[(2R)-2-(2,5-difluorophenyl)pyrrolidino]pyrazolo[1,5-a]pyrimidin-3-yl]-3-hydroxy-pyrrolidine-1-carboxamide;sulfuric acid

> <PUBCHEM_IUPAC_INCHI>
InChI=1S/C21H22F2N6O2.H2O4S/c22-13-3-4-16(23)15(10-13)18-2-1-7-28(18)19-6-9-29-20(26-19)17(11-24-29)25-21(31)27-8-5-14(30)12-27;1-5(2,3)4/h3-4,6,9-11,14,18,30H,1-2,5,7-8,12H2,(H,25,31);(H2,1,2,3,4)/t14-,18+;/m0./s1

> <PUBCHEM_IUPAC_INCHIKEY>
PXHANKVTFWSDSG-QLOBERJESA-N

> <PUBCHEM_EXACT_MASS>
526.14461000

> <PUBCHEM_MOLECULAR_FORMULA>
C21H24F2N6O6S

> <PUBCHEM_MOLECULAR_WEIGHT>
526.5

> <PUBCHEM_OPENEYE_CAN_SMILES>
C1CC(N(C1)C2=NC3=C(C=NN3C=C2)NC(=O)N4CCC(C4)O)C5=C(C=CC(=C5)F)F.OS(=O)(=O)O

> <PUBCHEM_OPENEYE_ISO_SMILES>
C1C[C@@H](N(C1)C2=NC3=C(C=NN3C=C2)NC(=O)N4CC[C@@H](C4)O)C5=C(C=CC(=C5)F)F.OS(=O)(=O)O

> <PUBCHEM_CACTVS_TPSA>
169

> <PUBCHEM_MONOISOTOPIC_WEIGHT>
526.14461000

> <PUBCHEM_TOTAL_CHARGE>
0

> <PUBCHEM_HEAVY_ATOM_COUNT>
36

> <PUBCHEM_ATOM_DEF_STEREO_COUNT>
2

> <PUBCHEM_ATOM_UDEF_STEREO_COUNT>
0

> <PUBCHEM_BOND_DEF_STEREO_COUNT>
0

> <PUBCHEM_BOND_UDEF_STEREO_COUNT>
0

> <PUBCHEM_ISOTOPIC_ATOM_COUNT>
0

> <PUBCHEM_COMPONENT_COUNT>
2

> <PUBCHEM_CACTVS_TAUTO_COUNT>
2

> <PUBCHEM_COORDINATE_TYPE>
1
5
255

> <PUBCHEM_BONDANNOTATIONS>
12  21  8
12  29  8
13  15  8
13  29  8
13  32  8
15  36  8
16  20  5
20  26  8
20  27  8
21  28  8
26  34  8
27  33  8
28  32  8
29  31  8
31  36  8
33  35  8
34  35  8
22  4  6

$$$$
51039030
  -OEChem-11282412102D

 73 77  0     1  0  0  0  0  0999 V2000
   13.9911   -0.2225    0.0000 Cl  0  0  0  0  0  0  0  0  0  0  0  0
    6.1808   -2.7972    0.0000 O   0  0  0  0  0  0  0  0  0  0  0  0
    7.0468   -3.2972    0.0000 O   0  0  0  0  0  0  0  0  0  0  0  0
   13.9680    1.7773    0.0000 O   0  0  0  0  0  0  0  0  0  0  0  0
    2.6691   -1.7039    0.0000 N   0  0  3  0  0  0  0  0  0  0  0  0
    7.0468   -1.2972    0.0000 N   0  0  0  0  0  0  0  0  0  0  0  0
   10.5272   -0.2626    0.0000 N   0  0  0  0  0  0  0  0  0  0  0  0
   10.5388   -3.3318    0.0000 N   0  0  0  0  0  0  0  0  0  0  0  0
   13.1730   -0.7697    0.0000 N   0  0  0  0  0  0  0  0  0  0  0  0
   15.6883    2.7973    0.0000 N   0  0  0  0  0  0  0  0  0  0  0  0
    3.5827   -1.2972    0.0000 C   0  0  2  0  0  0  0  0  0  0  0  0
    3.4782   -0.3026    0.0000 C   0  0  0  0  0  0  0  0  0  0  0  0
    2.5000   -0.0947    0.0000 C   0  0  0  0  0  0  0  0  0  0  0  0
    2.0000   -0.9608    0.0000 C   0  0  0  0  0  0  0  0  0  0  0  0
    4.4487   -1.7972    0.0000 C   0  0  0  0  0  0  0  0  0  0  0  0
    2.4612   -2.6821    0.0000 C   0  0  0  0  0  0  0  0  0  0  0  0
    5.3147   -1.2972    0.0000 C   0  0  0  0  0  0  0  0  0  0  0  0
    6.1808   -1.7972    0.0000 C   0  0  0  0  0  0  0  0  0  0  0  0
    7.9128   -1.7972    0.0000 C   0  0  0  0  0  0  0  0  0  0  0  0
    9.6448   -1.7972    0.0000 C   0  0  0  0  0  0  0  0  0  0  0  0
    8.7788   -1.2972    0.0000 C   0  0  0  0  0  0  0  0  0  0  0  0
    7.9128   -2.7972    0.0000 C   0  0  0  0  0  0  0  0  0  0  0  0
    9.6448   -2.7972    0.0000 C   0  0  0  0  0  0  0  0  0  0  0  0
   10.5388   -1.2625    0.0000 C   0  0  0  0  0  0  0  0  0  0  0  0
    8.7788   -3.2972    0.0000 C   0  0  0  0  0  0  0  0  0  0  0  0
   11.4449   -1.7764    0.0000 C   0  0  0  0  0  0  0  0  0  0  0  0
   11.4449   -2.8180    0.0000 C   0  0  0  0  0  0  0  0  0  0  0  0
   11.3874    0.2474    0.0000 C   0  0  0  0  0  0  0  0  0  0  0  0
    7.0468   -4.2972    0.0000 C   0  0  0  0  0  0  0  0  0  0  0  0
   12.2592   -0.2426    0.0000 C   0  0  0  0  0  0  0  0  0  0  0  0
   11.3759    1.2473    0.0000 C   0  0  0  0  0  0  0  0  0  0  0  0
   13.1078    1.2674    0.0000 C   0  0  0  0  0  0  0  0  0  0  0  0
   13.1194    0.2674    0.0000 C   0  0  0  0  0  0  0  0  0  0  0  0
   12.2360    1.7573    0.0000 C   0  0  0  0  0  0  0  0  0  0  0  0
   12.3090   -1.2730    0.0000 C   0  0  0  0  0  0  0  0  0  0  0  0
    6.1808   -4.7972    0.0000 C   0  0  0  0  0  0  0  0  0  0  0  0
   13.9564    2.7773    0.0000 C   0  0  0  0  0  0  0  0  0  0  0  0
   14.8166    3.2873    0.0000 C   0  0  0  0  0  0  0  0  0  0  0  0
   14.8050    4.2872    0.0000 C   0  0  0  0  0  0  0  0  0  0  0  0
   15.6652    4.7972    0.0000 C   0  0  0  0  0  0  0  0  0  0  0  0
   16.5485    3.3073    0.0000 C   0  0  0  0  0  0  0  0  0  0  0  0
   16.5370    4.3072    0.0000 C   0  0  0  0  0  0  0  0  0  0  0  0
    3.5502   -1.9163    0.0000 H   0  0  0  0  0  0  0  0  0  0  0  0
    4.0982   -0.3026    0.0000 H   0  0  0  0  0  0  0  0  0  0  0  0
    3.5430    0.3140    0.0000 H   0  0  0  0  0  0  0  0  0  0  0  0
    2.6916    0.4949    0.0000 H   0  0  0  0  0  0  0  0  0  0  0  0
    1.9336    0.1574    0.0000 H   0  0  0  0  0  0  0  0  0  0  0  0
    1.4984   -0.5963    0.0000 H   0  0  0  0  0  0  0  0  0  0  0  0
    1.5851   -1.4215    0.0000 H   0  0  0  0  0  0  0  0  0  0  0  0
    4.4487   -2.4172    0.0000 H   0  0  0  0  0  0  0  0  0  0  0  0
    1.8548   -2.5532    0.0000 H   0  0  0  0  0  0  0  0  0  0  0  0
    2.3323   -3.2885    0.0000 H   0  0  0  0  0  0  0  0  0  0  0  0
    3.0677   -2.8110    0.0000 H   0  0  0  0  0  0  0  0  0  0  0  0
    5.3147   -0.6772    0.0000 H   0  0  0  0  0  0  0  0  0  0  0  0
    7.0468   -0.6772    0.0000 H   0  0  0  0  0  0  0  0  0  0  0  0
    8.7788   -0.6772    0.0000 H   0  0  0  0  0  0  0  0  0  0  0  0
    8.7788   -3.9172    0.0000 H   0  0  0  0  0  0  0  0  0  0  0  0
    9.9868    0.0412    0.0000 H   0  0  0  0  0  0  0  0  0  0  0  0
   11.9806   -3.1301    0.0000 H   0  0  0  0  0  0  0  0  0  0  0  0
    7.2588   -4.8798    0.0000 H   0  0  0  0  0  0  0  0  0  0  0  0
    7.6574   -4.1895    0.0000 H   0  0  0  0  0  0  0  0  0  0  0  0
   12.2663   -0.8625    0.0000 H   0  0  0  0  0  0  0  0  0  0  0  0
   10.8354    1.5511    0.0000 H   0  0  0  0  0  0  0  0  0  0  0  0
   12.2289    2.3773    0.0000 H   0  0  0  0  0  0  0  0  0  0  0  0
    5.8708   -4.2602    0.0000 H   0  0  0  0  0  0  0  0  0  0  0  0
    5.6438   -5.1072    0.0000 H   0  0  0  0  0  0  0  0  0  0  0  0
    6.4908   -5.3341    0.0000 H   0  0  0  0  0  0  0  0  0  0  0  0
   13.7376    3.3574    0.0000 H   0  0  0  0  0  0  0  0  0  0  0  0
   13.3471    2.6626    0.0000 H   0  0  0  0  0  0  0  0  0  0  0  0
   14.2646    4.5910    0.0000 H   0  0  0  0  0  0  0  0  0  0  0  0
   15.6581    5.4171    0.0000 H   0  0  0  0  0  0  0  0  0  0  0  0
   17.0890    3.0035    0.0000 H   0  0  0  0  0  0  0  0  0  0  0  0
   17.0703    4.6234    0.0000 H   0  0  0  0  0  0  0  0  0  0  0  0
  1 33  1  0  0  0  0
  2 18  2  0  0  0  0
  3 22  1  0  0  0  0
  3 29  1  0  0  0  0
  4 32  1  0  0  0  0
  4 37  1  0  0  0  0
  5 11  1  0  0  0  0
  5 14  1  0  0  0  0
  5 16  1  0  0  0  0
  6 18  1  0  0  0  0
  6 19  1  0  0  0  0
  6 55  1  0  0  0  0
  7 24  1  0  0  0  0
  7 28  1  0  0  0  0
  7 58  1  0  0  0  0
  8 23  1  0  0  0  0
  8 27  2  0  0  0  0
  9 35  3  0  0  0  0
 10 38  1  0  0  0  0
 10 41  2  0  0  0  0
 11 12  1  0  0  0  0
 11 15  1  6  0  0  0
 11 43  1  0  0  0  0
 12 13  1  0  0  0  0
 12 44  1  0  0  0  0
 12 45  1  0  0  0  0
 13 14  1  0  0  0  0
 13 46  1  0  0  0  0
 13 47  1  0  0  0  0
 14 48  1  0  0  0  0
 14 49  1  0  0  0  0
 15 17  2  0  0  0  0
 15 50  1  0  0  0  0
 16 51  1  0  0  0  0
 16 52  1  0  0  0  0
 16 53  1  0  0  0  0
 17 18  1  0  0  0  0
 17 54  1  0  0  0  0
 19 21  1  0  0  0  0
 19 22  2  0  0  0  0
 20 21  2  0  0  0  0
 20 23  1  0  0  0  0
 20 24  1  0  0  0  0
 21 56  1  0  0  0  0
 22 25  1  0  0  0  0
 23 25  2  0  0  0  0
 24 26  2  0  0  0  0
 25 57  1  0  0  0  0
 26 27  1  0  0  0  0
 26 35  1  0  0  0  0
 27 59  1  0  0  0  0
 28 30  2  0  0  0  0
 28 31  1  0  0  0  0
 29 36  1  0  0  0  0
 29 60  1  0  0  0  0
 29 61  1  0  0  0  0
 30 33  1  0  0  0  0
 30 62  1  0  0  0  0
 31 34  2  0  0  0  0
 31 63  1  0  0  0  0
 32 33  2  0  0  0  0
 32 34  1  0  0  0  0
 34 64  1  0  0  0  0
 36 65  1  0  0  0  0
 36 66  1  0  0  0  0
 36 67  1  0  0  0  0
 37 38  1  0  0  0  0
 37 68  1  0  0  0  0
 37 69  1  0  0  0  0
 38 39  2  0  0  0  0
 39 40  1  0  0  0  0
 39 70  1  0  0  0  0
 40 42  2  0  0  0  0
 40 71  1  0  0  0  0
 41 42  1  0  0  0  0
 41 72  1  0  0  0  0
 42 73  1  0  0  0  0
M  END
> <PUBCHEM_COMPOUND_CID>
51039030

> <PUBCHEM_COMPOUND_CANONICALIZED>
1

> <PUBCHEM_CACTVS_COMPLEXITY>
960

> <PUBCHEM_CACTVS_HBOND_ACCEPTOR>
8

> <PUBCHEM_CACTVS_HBOND_DONOR>
2

> <PUBCHEM_CACTVS_ROTATABLE_BOND>
10

> <PUBCHEM_CACTVS_SUBSKEYS>
AAADceB/sAAEAAAAAAAAAAAAAAAAAWAAAAA8eIEAAAAAAACx/AAAHgIQAAAADC7hniY+xvPIFAC4BzV3VASiiCAxJ2AI2CA/b9gOpuPF89uHPCjm1BnY6Y+w0OMOIECAQgICGABAgQCEBAQwAAAAAAAAAA==

> <PUBCHEM_IUPAC_OPENEYE_NAME>
(E)-N-[4-[3-chloro-4-(2-pyridylmethoxy)anilino]-3-cyano-7-ethoxy-6-quinolyl]-3-[(2R)-1-methylpyrrolidin-2-yl]prop-2-enamide

> <PUBCHEM_IUPAC_CAS_NAME>
(E)-N-[4-[3-chloro-4-(2-pyridinylmethoxy)anilino]-3-cyano-7-ethoxy-6-quinolinyl]-3-[(2R)-1-methyl-2-pyrrolidinyl]-2-propenamide

> <PUBCHEM_IUPAC_NAME_MARKUP>
(<I>E</I>)-<I>N</I>-[4-[3-chloro-4-(pyridin-2-ylmethoxy)anilino]-3-cyano-7-ethoxyquinolin-6-yl]-3-[(2<I>R</I>)-1-methylpyrrolidin-2-yl]prop-2-enamide

> <PUBCHEM_IUPAC_NAME>
(E)-N-[4-[3-chloro-4-(pyridin-2-ylmethoxy)anilino]-3-cyano-7-ethoxyquinolin-6-yl]-3-[(2R)-1-methylpyrrolidin-2-yl]prop-2-enamide

> <PUBCHEM_IUPAC_SYSTEMATIC_NAME>
(E)-N-[4-[[3-chloranyl-4-(pyridin-2-ylmethoxy)phenyl]amino]-3-cyano-7-ethoxy-quinolin-6-yl]-3-[(2R)-1-methylpyrrolidin-2-yl]prop-2-enamide

> <PUBCHEM_IUPAC_TRADITIONAL_NAME>
(E)-N-[4-[3-chloro-4-(2-pyridylmethoxy)anilino]-3-cyano-7-ethoxy-6-quinolyl]-3-[(2R)-1-methylpyrrolidin-2-yl]acrylamide

> <PUBCHEM_IUPAC_INCHI>
InChI=1S/C32H31ClN6O3/c1-3-41-30-17-27-25(16-28(30)38-31(40)12-10-24-8-6-14-39(24)2)32(21(18-34)19-36-27)37-22-9-11-29(26(33)15-22)42-20-23-7-4-5-13-35-23/h4-5,7,9-13,15-17,19,24H,3,6,8,14,20H2,1-2H3,(H,36,37)(H,38,40)/b12-10+/t24-/m1/s1

> <PUBCHEM_IUPAC_INCHIKEY>
SADXACCFNXBCFY-IYNHSRRRSA-N

> <PUBCHEM_XLOGP3_AA>
5.4

> <PUBCHEM_EXACT_MASS>
582.2146166

> <PUBCHEM_MOLECULAR_FORMULA>
C32H31ClN6O3

> <PUBCHEM_MOLECULAR_WEIGHT>
583.1

> <PUBCHEM_OPENEYE_CAN_SMILES>
CCOC1=C(C=C2C(=C1)N=CC(=C2NC3=CC(=C(C=C3)OCC4=CC=CC=N4)Cl)C#N)NC(=O)C=CC5CCCN5C

> <PUBCHEM_OPENEYE_ISO_SMILES>
CCOC1=C(C=C2C(=C1)N=CC(=C2NC3=CC(=C(C=C3)OCC4=CC=CC=N4)Cl)C#N)NC(=O)/C=C/[C@H]5CCCN5C

> <PUBCHEM_CACTVS_TPSA>
112

> <PUBCHEM_MONOISOTOPIC_WEIGHT>
582.2146166

> <PUBCHEM_TOTAL_CHARGE>
0

> <PUBCHEM_HEAVY_ATOM_COUNT>
42

> <PUBCHEM_ATOM_DEF_STEREO_COUNT>
1

> <PUBCHEM_ATOM_UDEF_STEREO_COUNT>
0

> <PUBCHEM_BOND_DEF_STEREO_COUNT>
1

> <PUBCHEM_BOND_UDEF_STEREO_COUNT>
0

> <PUBCHEM_ISOTOPIC_ATOM_COUNT>
0

> <PUBCHEM_COMPONENT_COUNT>
1

> <PUBCHEM_CACTVS_TAUTO_COUNT>
-1

> <PUBCHEM_COORDINATE_TYPE>
1
5
255

> <PUBCHEM_BONDANNOTATIONS>
10  38  8
10  41  8
11  15  6
19  21  8
19  22  8
20  21  8
20  23  8
20  24  8
22  25  8
23  25  8
24  26  8
26  27  8
28  30  8
28  31  8
30  33  8
31  34  8
32  33  8
32  34  8
38  39  8
39  40  8
40  42  8
41  42  8
8  23  8
8  27  8

$$$$
91617869
  -OEChem-11282412102D

 78 80  0     0  0  0  0  0  0999 V2000
    4.0841    3.6200    0.0000 Cl  0  0  0  0  0  0  0  0  0  0  0  0
    0.6200    3.6200    0.0000 Cl  0  0  0  0  0  0  0  0  0  0  0  0
    7.0737   13.1319    0.0000 S   0  0  0  0  0  0  0  0  0  0  0  0
    4.0841    4.6200    0.0000 O   0  0  0  0  0  0  0  0  0  0  0  0
    0.6200    1.6200    0.0000 O   0  0  0  0  0  0  0  0  0  0  0  0
    4.0841    1.6200    0.0000 O   0  0  0  0  0  0  0  0  0  0  0  0
    7.9397   13.6319    0.0000 O   0  0  0  0  0  0  0  0  0  0  0  0
    6.5737   13.9979    0.0000 O   0  0  0  0  0  0  0  0  0  0  0  0
    7.5737   12.2659    0.0000 O   0  0  0  0  0  0  0  0  0  0  0  0
   11.8783    9.1200    0.0000 N   0  0  0  0  0  0  0  0  0  0  0  0
   10.1463    8.1200    0.0000 N   0  0  0  0  0  0  0  0  0  0  0  0
    6.6822    6.1200    0.0000 N   0  0  0  0  0  0  0  0  0  0  0  0
    5.8162    7.6200    0.0000 N   0  0  0  0  0  0  0  0  0  0  0  0
    3.2181    6.1200    0.0000 N   0  0  0  0  0  0  0  0  0  0  0  0
    4.0841    7.6200    0.0000 N   0  0  0  0  0  0  0  0  0  0  0  0
    2.3521    4.6200    0.0000 N   0  0  0  0  0  0  0  0  0  0  0  0
   11.8783    8.1200    0.0000 C   0  0  0  0  0  0  0  0  0  0  0  0
   11.0123    9.6200    0.0000 C   0  0  0  0  0  0  0  0  0  0  0  0
   11.0123    7.6200    0.0000 C   0  0  0  0  0  0  0  0  0  0  0  0
   10.1463    9.1200    0.0000 C   0  0  0  0  0  0  0  0  0  0  0  0
   12.7444    9.6200    0.0000 C   0  0  0  0  0  0  0  0  0  0  0  0
    9.2802    7.6200    0.0000 C   0  0  0  0  0  0  0  0  0  0  0  0
   13.6104    9.1200    0.0000 C   0  0  0  0  0  0  0  0  0  0  0  0
    8.4142    8.1200    0.0000 C   0  0  0  0  0  0  0  0  0  0  0  0
    9.2802    6.6200    0.0000 C   0  0  0  0  0  0  0  0  0  0  0  0
    7.5482    7.6200    0.0000 C   0  0  0  0  0  0  0  0  0  0  0  0
    8.4142    6.1200    0.0000 C   0  0  0  0  0  0  0  0  0  0  0  0
    7.5482    6.6200    0.0000 C   0  0  0  0  0  0  0  0  0  0  0  0
    5.8162    6.6200    0.0000 C   0  0  0  0  0  0  0  0  0  0  0  0
    4.9501    6.1200    0.0000 C   0  0  0  0  0  0  0  0  0  0  0  0
    4.0841    6.6200    0.0000 C   0  0  0  0  0  0  0  0  0  0  0  0
    4.9501    8.1200    0.0000 C   0  0  0  0  0  0  0  0  0  0  0  0
    3.2181    5.1200    0.0000 C   0  0  0  0  0  0  0  0  0  0  0  0
    2.3521    6.6200    0.0000 C   0  0  0  0  0  0  0  0  0  0  0  0
    2.3521    3.6200    0.0000 C   0  0  0  0  0  0  0  0  0  0  0  0
    3.2181    3.1200    0.0000 C   0  0  0  0  0  0  0  0  0  0  0  0
    1.4860    3.1200    0.0000 C   0  0  0  0  0  0  0  0  0  0  0  0
    1.4860    2.1200    0.0000 C   0  0  0  0  0  0  0  0  0  0  0  0
    3.2181    2.1200    0.0000 C   0  0  0  0  0  0  0  0  0  0  0  0
    2.3521    1.6200    0.0000 C   0  0  0  0  0  0  0  0  0  0  0  0
    0.6200    0.6200    0.0000 C   0  0  0  0  0  0  0  0  0  0  0  0
    4.0841    0.6200    0.0000 C   0  0  0  0  0  0  0  0  0  0  0  0
    6.2076   12.6319    0.0000 C   0  0  0  0  0  0  0  0  0  0  0  0
   12.0904    7.5374    0.0000 H   0  0  0  0  0  0  0  0  0  0  0  0
   12.4889    8.2277    0.0000 H   0  0  0  0  0  0  0  0  0  0  0  0
   11.4108   10.0949    0.0000 H   0  0  0  0  0  0  0  0  0  0  0  0
   10.6138   10.0949    0.0000 H   0  0  0  0  0  0  0  0  0  0  0  0
   10.6138    7.1450    0.0000 H   0  0  0  0  0  0  0  0  0  0  0  0
   11.4108    7.1450    0.0000 H   0  0  0  0  0  0  0  0  0  0  0  0
    9.9342    9.7026    0.0000 H   0  0  0  0  0  0  0  0  0  0  0  0
    9.5357    9.0123    0.0000 H   0  0  0  0  0  0  0  0  0  0  0  0
   13.1429   10.0949    0.0000 H   0  0  0  0  0  0  0  0  0  0  0  0
   12.3458   10.0949    0.0000 H   0  0  0  0  0  0  0  0  0  0  0  0
   13.3004    8.5831    0.0000 H   0  0  0  0  0  0  0  0  0  0  0  0
   14.1473    8.8100    0.0000 H   0  0  0  0  0  0  0  0  0  0  0  0
   13.9204    9.6569    0.0000 H   0  0  0  0  0  0  0  0  0  0  0  0
    8.4142    8.7400    0.0000 H   0  0  0  0  0  0  0  0  0  0  0  0
    9.8172    6.3100    0.0000 H   0  0  0  0  0  0  0  0  0  0  0  0
    7.0113    7.9300    0.0000 H   0  0  0  0  0  0  0  0  0  0  0  0
    8.4142    5.5000    0.0000 H   0  0  0  0  0  0  0  0  0  0  0  0
    6.6822    5.5000    0.0000 H   0  0  0  0  0  0  0  0  0  0  0  0
    4.9501    5.5000    0.0000 H   0  0  0  0  0  0  0  0  0  0  0  0
    4.9501    8.7400    0.0000 H   0  0  0  0  0  0  0  0  0  0  0  0
    2.6620    7.1569    0.0000 H   0  0  0  0  0  0  0  0  0  0  0  0
    1.8151    6.9300    0.0000 H   0  0  0  0  0  0  0  0  0  0  0  0
    2.0420    6.0831    0.0000 H   0  0  0  0  0  0  0  0  0  0  0  0
    1.8151    4.9300    0.0000 H   0  0  0  0  0  0  0  0  0  0  0  0
    2.3521    1.0000    0.0000 H   0  0  0  0  0  0  0  0  0  0  0  0
    0.0000    0.6200    0.0000 H   0  0  0  0  0  0  0  0  0  0  0  0
    0.6200    0.0000    0.0000 H   0  0  0  0  0  0  0  0  0  0  0  0
    1.2400    0.6200    0.0000 H   0  0  0  0  0  0  0  0  0  0  0  0
    3.4641    0.6200    0.0000 H   0  0  0  0  0  0  0  0  0  0  0  0
    4.0841    0.0000    0.0000 H   0  0  0  0  0  0  0  0  0  0  0  0
    4.7041    0.6200    0.0000 H   0  0  0  0  0  0  0  0  0  0  0  0
    5.8976   13.1688    0.0000 H   0  0  0  0  0  0  0  0  0  0  0  0
    5.6707   12.3219    0.0000 H   0  0  0  0  0  0  0  0  0  0  0  0
    6.5176   12.0949    0.0000 H   0  0  0  0  0  0  0  0  0  0  0  0
    8.4766   13.3219    0.0000 H   0  0  0  0  0  0  0  0  0  0  0  0
  1 36  1  0  0  0  0
  2 37  1  0  0  0  0
  3  7  1  0  0  0  0
  3  8  2  0  0  0  0
  3  9  2  0  0  0  0
  3 43  1  0  0  0  0
  4 33  2  0  0  0  0
  5 38  1  0  0  0  0
  5 41  1  0  0  0  0
  6 39  1  0  0  0  0
  6 42  1  0  0  0  0
  7 78  1  0  0  0  0
 10 17  1  0  0  0  0
 10 18  1  0  0  0  0
 10 21  1  0  0  0  0
 11 19  1  0  0  0  0
 11 20  1  0  0  0  0
 11 22  1  0  0  0  0
 12 28  1  0  0  0  0
 12 29  1  0  0  0  0
 12 61  1  0  0  0  0
 13 29  1  0  0  0  0
 13 32  2  0  0  0  0
 14 31  1  0  0  0  0
 14 33  1  0  0  0  0
 14 34  1  0  0  0  0
 15 31  2  0  0  0  0
 15 32  1  0  0  0  0
 16 33  1  0  0  0  0
 16 35  1  0  0  0  0
 16 67  1  0  0  0  0
 17 19  1  0  0  0  0
 17 44  1  0  0  0  0
 17 45  1  0  0  0  0
 18 20  1  0  0  0  0
 18 46  1  0  0  0  0
 18 47  1  0  0  0  0
 19 48  1  0  0  0  0
 19 49  1  0  0  0  0
 20 50  1  0  0  0  0
 20 51  1  0  0  0  0
 21 23  1  0  0  0  0
 21 52  1  0  0  0  0
 21 53  1  0  0  0  0
 22 24  2  0  0  0  0
 22 25  1  0  0  0  0
 23 54  1  0  0  0  0
 23 55  1  0  0  0  0
 23 56  1  0  0  0  0
 24 26  1  0  0  0  0
 24 57  1  0  0  0  0
 25 27  2  0  0  0  0
 25 58  1  0  0  0  0
 26 28  2  0  0  0  0
 26 59  1  0  0  0  0
 27 28  1  0  0  0  0
 27 60  1  0  0  0  0
 29 30  2  0  0  0  0
 30 31  1  0  0  0  0
 30 62  1  0  0  0  0
 32 63  1  0  0  0  0
 34 64  1  0  0  0  0
 34 65  1  0  0  0  0
 34 66  1  0  0  0  0
 35 36  2  0  0  0  0
 35 37  1  0  0  0  0
 36 39  1  0  0  0  0
 37 38  2  0  0  0  0
 38 40  1  0  0  0  0
 39 40  2  0  0  0  0
 40 68  1  0  0  0  0
 41 69  1  0  0  0  0
 41 70  1  0  0  0  0
 41 71  1  0  0  0  0
 42 72  1  0  0  0  0
 42 73  1  0  0  0  0
 42 74  1  0  0  0  0
 43 75  1  0  0  0  0
 43 76  1  0  0  0  0
 43 77  1  0  0  0  0
M  END
> <PUBCHEM_COMPOUND_CID>
91617869

> <PUBCHEM_COMPOUND_CANONICALIZED>
1

> <PUBCHEM_CACTVS_COMPLEXITY>
816

> <PUBCHEM_CACTVS_HBOND_ACCEPTOR>
11

> <PUBCHEM_CACTVS_HBOND_DONOR>
3

> <PUBCHEM_CACTVS_ROTATABLE_BOND>
8

> <PUBCHEM_CACTVS_SUBSKEYS>
AAADcfB7uABGAAAAAAAAAAAAAAAAAAAAAAA8eIEAAAAAAAAB0AAAHgYQCAAACA7Bkia39pfIFIKoACZjdHCCiCkxJuAJ2CA+b5iMb2PF+9vUNChv1x/I6CeQcA8AACCACgCACBAAQQAUAQAQIAAAAAAAAA==

> <PUBCHEM_IUPAC_OPENEYE_NAME>
3-(2,6-dichloro-3,5-dimethoxy-phenyl)-1-[6-[4-(4-ethylpiperazin-1-yl)anilino]pyrimidin-4-yl]-1-methyl-urea;methanesulfonic acid

> <PUBCHEM_IUPAC_CAS_NAME>
3-(2,6-dichloro-3,5-dimethoxyphenyl)-1-[6-[4-(4-ethyl-1-piperazinyl)anilino]-4-pyrimidinyl]-1-methylurea;methanesulfonic acid

> <PUBCHEM_IUPAC_NAME_MARKUP>
3-(2,6-dichloro-3,5-dimethoxyphenyl)-1-[6-[4-(4-ethylpiperazin-1-yl)anilino]pyrimidin-4-yl]-1-methylurea;methanesulfonic acid

> <PUBCHEM_IUPAC_NAME>
3-(2,6-dichloro-3,5-dimethoxyphenyl)-1-[6-[4-(4-ethylpiperazin-1-yl)anilino]pyrimidin-4-yl]-1-methylurea;methanesulfonic acid

> <PUBCHEM_IUPAC_SYSTEMATIC_NAME>
3-[2,6-bis(chloranyl)-3,5-dimethoxy-phenyl]-1-[6-[[4-(4-ethylpiperazin-1-yl)phenyl]amino]pyrimidin-4-yl]-1-methyl-urea;methanesulfonic acid

> <PUBCHEM_IUPAC_TRADITIONAL_NAME>
3-(2,6-dichloro-3,5-dimethoxy-phenyl)-1-[6-[4-(4-ethylpiperazino)anilino]pyrimidin-4-yl]-1-methyl-urea;mesylic acid

> <PUBCHEM_IUPAC_INCHI>
InChI=1S/C26H31Cl2N7O3.CH4O3S/c1-5-34-10-12-35(13-11-34)18-8-6-17(7-9-18)31-21-15-22(30-16-29-21)33(2)26(36)32-25-23(27)19(37-3)14-20(38-4)24(25)28;1-5(2,3)4/h6-9,14-16H,5,10-13H2,1-4H3,(H,32,36)(H,29,30,31);1H3,(H,2,3,4)

> <PUBCHEM_IUPAC_INCHIKEY>
BXJJFNXYWJLBOS-UHFFFAOYSA-N

> <PUBCHEM_EXACT_MASS>
655.1746584

> <PUBCHEM_MOLECULAR_FORMULA>
C27H35Cl2N7O6S

> <PUBCHEM_MOLECULAR_WEIGHT>
656.6

> <PUBCHEM_OPENEYE_CAN_SMILES>
CCN1CCN(CC1)C2=CC=C(C=C2)NC3=CC(=NC=N3)N(C)C(=O)NC4=C(C(=CC(=C4Cl)OC)OC)Cl.CS(=O)(=O)O

> <PUBCHEM_OPENEYE_ISO_SMILES>
CCN1CCN(CC1)C2=CC=C(C=C2)NC3=CC(=NC=N3)N(C)C(=O)NC4=C(C(=CC(=C4Cl)OC)OC)Cl.CS(=O)(=O)O

> <PUBCHEM_CACTVS_TPSA>
158

> <PUBCHEM_MONOISOTOPIC_WEIGHT>
655.1746584

> <PUBCHEM_TOTAL_CHARGE>
0

> <PUBCHEM_HEAVY_ATOM_COUNT>
43

> <PUBCHEM_ATOM_DEF_STEREO_COUNT>
0

> <PUBCHEM_ATOM_UDEF_STEREO_COUNT>
0

> <PUBCHEM_BOND_DEF_STEREO_COUNT>
0

> <PUBCHEM_BOND_UDEF_STEREO_COUNT>
0

> <PUBCHEM_ISOTOPIC_ATOM_COUNT>
0

> <PUBCHEM_COMPONENT_COUNT>
2

> <PUBCHEM_CACTVS_TAUTO_COUNT>
6

> <PUBCHEM_COORDINATE_TYPE>
1
5
255

> <PUBCHEM_BONDANNOTATIONS>
13  29  8
13  32  8
15  31  8
15  32  8
22  24  8
22  25  8
24  26  8
25  27  8
26  28  8
27  28  8
29  30  8
30  31  8
35  36  8
35  37  8
36  39  8
37  38  8
38  40  8
39  40  8

$$$$
126565
  -OEChem-11282412102D

 54 61  0     1  0  0  0  0  0999 V2000
    4.8816    2.3172    0.0000 O   0  0  0  0  0  0  0  0  0  0  0  0
    3.1094   -1.1347    0.0000 O   0  0  0  0  0  0  0  0  0  0  0  0
    1.2823    0.0409    0.0000 O   0  0  0  0  0  0  0  0  0  0  0  0
   10.1568    0.6180    0.0000 O   0  0  0  0  0  0  0  0  0  0  0  0
    5.4796   -0.6474    0.0000 N   0  0  0  0  0  0  0  0  0  0  0  0
    6.1637    1.2320    0.0000 N   0  0  0  0  0  0  0  0  0  0  0  0
    9.8243   -1.1645    0.0000 N   0  0  0  0  0  0  0  0  0  0  0  0
    4.4038    0.3687    0.0000 C   0  0  2  0  0  0  0  0  0  0  0  0
    3.0049   -0.1401    0.0000 C   0  0  1  0  0  0  0  0  0  0  0  0
    4.1450    1.3346    0.0000 C   0  0  1  0  0  0  0  0  0  0  0  0
    2.7461    0.8258    0.0000 C   0  0  0  0  0  0  0  0  0  0  0  0
    6.4644   -0.4737    0.0000 C   0  0  0  0  0  0  0  0  0  0  0  0
    6.8064    0.4660    0.0000 C   0  0  0  0  0  0  0  0  0  0  0  0
    7.1216   -1.2819    0.0000 C   0  0  0  0  0  0  0  0  0  0  0  0
    4.6626   -0.5972    0.0000 C   0  0  0  0  0  0  0  0  0  0  0  0
    2.0913   -0.5469    0.0000 C   0  0  0  0  0  0  0  0  0  0  0  0
    7.8294    0.6626    0.0000 C   0  0  0  0  0  0  0  0  0  0  0  0
    5.5066   -1.6408    0.0000 C   0  0  0  0  0  0  0  0  0  0  0  0
    6.8229    1.9757    0.0000 C   0  0  0  0  0  0  0  0  0  0  0  0
    6.4336   -1.9990    0.0000 C   0  0  0  0  0  0  0  0  0  0  0  0
    8.1488   -1.1089    0.0000 C   0  0  0  0  0  0  0  0  0  0  0  0
    8.5050   -0.1301    0.0000 C   0  0  0  0  0  0  0  0  0  0  0  0
    7.7633    1.6543    0.0000 C   0  0  0  0  0  0  0  0  0  0  0  0
    8.9664   -1.7443    0.0000 C   0  0  0  0  0  0  0  0  0  0  0  0
    4.6907   -2.2780    0.0000 C   0  0  0  0  0  0  0  0  0  0  0  0
    9.5398   -0.1689    0.0000 C   0  0  0  0  0  0  0  0  0  0  0  0
    6.6075    2.9882    0.0000 C   0  0  0  0  0  0  0  0  0  0  0  0
    6.6090   -3.0193    0.0000 C   0  0  0  0  0  0  0  0  0  0  0  0
    8.5534    2.3231    0.0000 C   0  0  0  0  0  0  0  0  0  0  0  0
    4.8425   -3.3020    0.0000 C   0  0  0  0  0  0  0  0  0  0  0  0
    5.8081   -3.6751    0.0000 C   0  0  0  0  0  0  0  0  0  0  0  0
    7.3819    3.6751    0.0000 C   0  0  0  0  0  0  0  0  0  0  0  0
    8.3615    3.3403    0.0000 C   0  0  0  0  0  0  0  0  0  0  0  0
    3.9250    2.1556    0.0000 H   0  0  0  0  0  0  0  0  0  0  0  0
    2.1521    0.6480    0.0000 H   0  0  0  0  0  0  0  0  0  0  0  0
    2.5511    1.4143    0.0000 H   0  0  0  0  0  0  0  0  0  0  0  0
    5.2615   -0.4368    0.0000 H   0  0  0  0  0  0  0  0  0  0  0  0
    4.8231   -1.1961    0.0000 H   0  0  0  0  0  0  0  0  0  0  0  0
    4.0638   -0.7577    0.0000 H   0  0  0  0  0  0  0  0  0  0  0  0
    2.4380   -1.0609    0.0000 H   0  0  0  0  0  0  0  0  0  0  0  0
    1.6454   -0.9776    0.0000 H   0  0  0  0  0  0  0  0  0  0  0  0
    2.6078   -1.4991    0.0000 H   0  0  0  0  0  0  0  0  0  0  0  0
    9.3656   -2.2187    0.0000 H   0  0  0  0  0  0  0  0  0  0  0  0
    8.5366   -2.1912    0.0000 H   0  0  0  0  0  0  0  0  0  0  0  0
    4.1150   -2.0478    0.0000 H   0  0  0  0  0  0  0  0  0  0  0  0
    6.0185    3.1820    0.0000 H   0  0  0  0  0  0  0  0  0  0  0  0
    7.1899   -3.2360    0.0000 H   0  0  0  0  0  0  0  0  0  0  0  0
    9.1378    2.1157    0.0000 H   0  0  0  0  0  0  0  0  0  0  0  0
   10.4069   -1.3766    0.0000 H   0  0  0  0  0  0  0  0  0  0  0  0
    0.7159   -0.2113    0.0000 H   0  0  0  0  0  0  0  0  0  0  0  0
    4.3583   -3.6892    0.0000 H   0  0  0  0  0  0  0  0  0  0  0  0
    5.9061   -4.2873    0.0000 H   0  0  0  0  0  0  0  0  0  0  0  0
    7.2599    4.2830    0.0000 H   0  0  0  0  0  0  0  0  0  0  0  0
    8.8301    3.7463    0.0000 H   0  0  0  0  0  0  0  0  0  0  0  0
  1  8  1  0  0  0  0
  1 10  1  0  0  0  0
  9  2  1  6  0  0  0
  2 42  1  0  0  0  0
  3 16  1  0  0  0  0
  3 50  1  0  0  0  0
  4 26  2  0  0  0  0
  5  8  1  0  0  0  0
  5 12  1  0  0  0  0
  5 18  1  0  0  0  0
  6 10  1  0  0  0  0
  6 13  1  0  0  0  0
  6 19  1  0  0  0  0
  7 24  1  0  0  0  0
  7 26  1  0  0  0  0
  7 49  1  0  0  0  0
  8  9  1  0  0  0  0
  8 15  1  1  0  0  0
  9 11  1  0  0  0  0
  9 16  1  0  0  0  0
 10 11  1  0  0  0  0
 10 34  1  6  0  0  0
 11 35  1  0  0  0  0
 11 36  1  0  0  0  0
 12 13  2  0  0  0  0
 12 14  1  0  0  0  0
 13 17  1  0  0  0  0
 14 20  1  0  0  0  0
 14 21  2  0  0  0  0
 15 37  1  0  0  0  0
 15 38  1  0  0  0  0
 15 39  1  0  0  0  0
 16 40  1  0  0  0  0
 16 41  1  0  0  0  0
 17 22  2  0  0  0  0
 17 23  1  0  0  0  0
 18 20  1  0  0  0  0
 18 25  2  0  0  0  0
 19 23  1  0  0  0  0
 19 27  2  0  0  0  0
 20 28  2  0  0  0  0
 21 22  1  0  0  0  0
 21 24  1  0  0  0  0
 22 26  1  0  0  0  0
 23 29  2  0  0  0  0
 24 43  1  0  0  0  0
 24 44  1  0  0  0  0
 25 30  1  0  0  0  0
 25 45  1  0  0  0  0
 27 32  1  0  0  0  0
 27 46  1  0  0  0  0
 28 31  1  0  0  0  0
 28 47  1  0  0  0  0
 29 33  1  0  0  0  0
 29 48  1  0  0  0  0
 30 31  2  0  0  0  0
 30 51  1  0  0  0  0
 31 52  1  0  0  0  0
 32 33  2  0  0  0  0
 32 53  1  0  0  0  0
 33 54  1  0  0  0  0
M  END
> <PUBCHEM_COMPOUND_CID>
126565

> <PUBCHEM_COMPOUND_CANONICALIZED>
1

> <PUBCHEM_CACTVS_COMPLEXITY>
886

> <PUBCHEM_CACTVS_HBOND_ACCEPTOR>
4

> <PUBCHEM_CACTVS_HBOND_DONOR>
3

> <PUBCHEM_CACTVS_ROTATABLE_BOND>
1

> <PUBCHEM_CACTVS_SUBSKEYS>
AAADceB7OAAAAAAAAAAAAAAAAAAAAWLFiQAwYMAABYAWAFix/gAAHgAQCAAADEzhngYywPPMFgCoAyVyVACCgCQlEiAI2KE4dNgLcPLAlZGeYQhnhgDbyQf8icCeyAACQAASACCQAASAACQAQAAAAAAAAA==

> <PUBCHEM_IUPAC_OPENEYE_NAME>
(15S,16S,18R)-16-hydroxy-16-(hydroxymethyl)-15-methyl-28-oxa-4,14,19-triazaoctacyclo[12.11.2.115,18.02,6.07,27.08,13.019,26.020,25]octacosa-1,6,8,10,12,20,22,24,26-nonaen-3-one

> <PUBCHEM_IUPAC_CAS_NAME>
(15S,16S,18R)-16-hydroxy-16-(hydroxymethyl)-15-methyl-28-oxa-4,14,19-triazaoctacyclo[12.11.2.115,18.02,6.07,27.08,13.019,26.020,25]octacosa-1,6,8,10,12,20,22,24,26-nonaen-3-one

> <PUBCHEM_IUPAC_NAME_MARKUP>
(15<I>S</I>,16<I>S</I>,18<I>R</I>)-16-hydroxy-16-(hydroxymethyl)-15-methyl-28-oxa-4,14,19-triazaoctacyclo[12.11.2.1<SUP>15,18</SUP>.0<SUP>2,6</SUP>.0<SUP>7,27</SUP>.0<SUP>8,13</SUP>.0<SUP>19,26</SUP>.0<SUP>20,25</SUP>]octacosa-1,6,8,10,12,20,22,24,26-nonaen-3-one

> <PUBCHEM_IUPAC_NAME>
(15S,16S,18R)-16-hydroxy-16-(hydroxymethyl)-15-methyl-28-oxa-4,14,19-triazaoctacyclo[12.11.2.115,18.02,6.07,27.08,13.019,26.020,25]octacosa-1,6,8,10,12,20,22,24,26-nonaen-3-one

> <PUBCHEM_IUPAC_SYSTEMATIC_NAME>
(15S,16S,18R)-16-(hydroxymethyl)-15-methyl-16-oxidanyl-28-oxa-4,14,19-triazaoctacyclo[12.11.2.115,18.02,6.07,27.08,13.019,26.020,25]octacosa-1,6,8,10,12,20,22,24,26-nonaen-3-one

> <PUBCHEM_IUPAC_TRADITIONAL_NAME>
(15S,16S,18R)-16-hydroxy-15-methyl-16-methylol-28-oxa-4,14,19-triazaoctacyclo[12.11.2.115,18.02,6.07,27.08,13.019,26.020,25]octacosa-1,6,8,10,12,20,22,24,26-nonaen-3-one

> <PUBCHEM_IUPAC_INCHI>
InChI=1S/C26H21N3O4/c1-25-26(32,12-30)10-18(33-25)28-16-8-4-2-6-13(16)20-21-15(11-27-24(21)31)19-14-7-3-5-9-17(14)29(25)23(19)22(20)28/h2-9,18,30,32H,10-12H2,1H3,(H,27,31)/t18-,25+,26+/m1/s1

> <PUBCHEM_IUPAC_INCHIKEY>
UIARLYUEJFELEN-LROUJFHJSA-N

> <PUBCHEM_XLOGP3_AA>
2.2

> <PUBCHEM_EXACT_MASS>
439.15320616

> <PUBCHEM_MOLECULAR_FORMULA>
C26H21N3O4

> <PUBCHEM_MOLECULAR_WEIGHT>
439.5

> <PUBCHEM_OPENEYE_CAN_SMILES>
CC12C(CC(O1)N3C4=CC=CC=C4C5=C6C(=C7C8=CC=CC=C8N2C7=C53)CNC6=O)(CO)O

> <PUBCHEM_OPENEYE_ISO_SMILES>
C[C@@]12[C@](C[C@@H](O1)N3C4=CC=CC=C4C5=C6C(=C7C8=CC=CC=C8N2C7=C53)CNC6=O)(CO)O

> <PUBCHEM_CACTVS_TPSA>
88.6

> <PUBCHEM_MONOISOTOPIC_WEIGHT>
439.15320616

> <PUBCHEM_TOTAL_CHARGE>
0

> <PUBCHEM_HEAVY_ATOM_COUNT>
33

> <PUBCHEM_ATOM_DEF_STEREO_COUNT>
3

> <PUBCHEM_ATOM_UDEF_STEREO_COUNT>
0

> <PUBCHEM_BOND_DEF_STEREO_COUNT>
0

> <PUBCHEM_BOND_UDEF_STEREO_COUNT>
0

> <PUBCHEM_ISOTOPIC_ATOM_COUNT>
0

> <PUBCHEM_COMPONENT_COUNT>
1

> <PUBCHEM_CACTVS_TAUTO_COUNT>
-1

> <PUBCHEM_COORDINATE_TYPE>
1
5
255

> <PUBCHEM_BONDANNOTATIONS>
10  34  6
12  13  8
12  14  8
13  17  8
14  20  8
14  21  8
17  22  8
17  23  8
18  20  8
18  25  8
19  23  8
19  27  8
9  2  6
20  28  8
21  22  8
23  29  8
25  30  8
27  32  8
28  31  8
29  33  8
30  31  8
32  33  8
5  12  8
5  18  8
6  13  8
6  19  8
8  15  5

$$$$
16757572
  -OEChem-11282412102D

 66 68  0     0  0  0  0  0  0999 V2000
   10.3312    7.4847    0.0000 Cl  0  0  0  0  0  0  0  0  0  0  0  0
    0.0000    9.1200    0.0000 F   0  0  0  0  0  0  0  0  0  0  0  0
    1.3660    8.7540    0.0000 F   0  0  0  0  0  0  0  0  0  0  0  0
    0.3660   10.4860    0.0000 F   0  0  0  0  0  0  0  0  0  0  0  0
    3.4641    8.1200    0.0000 O   0  0  0  0  0  0  0  0  0  0  0  0
   13.8681    7.4847    0.0000 O   0  0  0  0  0  0  0  0  0  0  0  0
    2.5981   12.6200    0.0000 N   0  0  0  0  0  0  0  0  0  0  0  0
    4.3301    9.6200    0.0000 N   0  0  0  0  0  0  0  0  0  0  0  0
    6.0622    5.6200    0.0000 N   0  0  0  0  0  0  0  0  0  0  0  0
    2.0981   14.1588    0.0000 N   0  0  0  0  0  0  0  0  0  0  0  0
    5.1962    4.1200    0.0000 N   0  0  0  0  0  0  0  0  0  0  0  0
    4.3301    5.6200    0.0000 N   0  0  0  0  0  0  0  0  0  0  0  0
    5.1962    1.1200    0.0000 N   0  0  0  0  0  0  0  0  0  0  0  0
    2.5981   11.6200    0.0000 C   0  0  0  0  0  0  0  0  0  0  0  0
    3.4641   10.1200    0.0000 C   0  0  0  0  0  0  0  0  0  0  0  0
    1.7320   10.1200    0.0000 C   0  0  0  0  0  0  0  0  0  0  0  0
    3.4641   11.1200    0.0000 C   0  0  0  0  0  0  0  0  0  0  0  0
    1.7320   11.1200    0.0000 C   0  0  0  0  0  0  0  0  0  0  0  0
    2.5981    9.6200    0.0000 C   0  0  0  0  0  0  0  0  0  0  0  0
    5.1962    8.1200    0.0000 C   0  0  0  0  0  0  0  0  0  0  0  0
    6.0622    6.6200    0.0000 C   0  0  0  0  0  0  0  0  0  0  0  0
    6.9282    7.1200    0.0000 C   0  0  0  0  0  0  0  0  0  0  0  0
    5.1962    7.1200    0.0000 C   0  0  0  0  0  0  0  0  0  0  0  0
    4.3301    8.6200    0.0000 C   0  0  0  0  0  0  0  0  0  0  0  0
    3.4071   13.2078    0.0000 C   0  0  0  0  0  0  0  0  0  0  0  0
    6.0622    8.6200    0.0000 C   0  0  0  0  0  0  0  0  0  0  0  0
    6.9282    8.1200    0.0000 C   0  0  0  0  0  0  0  0  0  0  0  0
    0.8660    9.6200    0.0000 C   0  0  0  0  0  0  0  0  0  0  0  0
    1.7891   13.2078    0.0000 C   0  0  0  0  0  0  0  0  0  0  0  0
    3.0981   14.1588    0.0000 C   0  0  0  0  0  0  0  0  0  0  0  0
    7.7942    6.6200    0.0000 C   0  0  0  0  0  0  0  0  0  0  0  0
    3.6859   14.9679    0.0000 C   0  0  0  0  0  0  0  0  0  0  0  0
    5.1962    5.1200    0.0000 C   0  0  0  0  0  0  0  0  0  0  0  0
    4.3301    3.6200    0.0000 C   0  0  0  0  0  0  0  0  0  0  0  0
    4.3301    2.6200    0.0000 C   0  0  0  0  0  0  0  0  0  0  0  0
    3.4641    4.1200    0.0000 C   0  0  0  0  0  0  0  0  0  0  0  0
    3.4641    5.1200    0.0000 C   0  0  0  0  0  0  0  0  0  0  0  0
    3.4641    2.1200    0.0000 C   0  0  0  0  0  0  0  0  0  0  0  0
    5.1962    2.1200    0.0000 C   0  0  0  0  0  0  0  0  0  0  0  0
    3.4641    1.1200    0.0000 C   0  0  0  0  0  0  0  0  0  0  0  0
    4.3301    0.6200    0.0000 C   0  0  0  0  0  0  0  0  0  0  0  0
    4.0010   11.4300    0.0000 H   0  0  0  0  0  0  0  0  0  0  0  0
    1.1951   11.4300    0.0000 H   0  0  0  0  0  0  0  0  0  0  0  0
    2.5981    9.0000    0.0000 H   0  0  0  0  0  0  0  0  0  0  0  0
    4.8671    9.9300    0.0000 H   0  0  0  0  0  0  0  0  0  0  0  0
    4.6592    6.8100    0.0000 H   0  0  0  0  0  0  0  0  0  0  0  0
    3.9968   13.0162    0.0000 H   0  0  0  0  0  0  0  0  0  0  0  0
    6.0622    9.2400    0.0000 H   0  0  0  0  0  0  0  0  0  0  0  0
    7.4651    8.4300    0.0000 H   0  0  0  0  0  0  0  0  0  0  0  0
    1.1994   13.0162    0.0000 H   0  0  0  0  0  0  0  0  0  0  0  0
    6.5991    5.3100    0.0000 H   0  0  0  0  0  0  0  0  0  0  0  0
    7.4842    6.0831    0.0000 H   0  0  0  0  0  0  0  0  0  0  0  0
    8.3312    6.3100    0.0000 H   0  0  0  0  0  0  0  0  0  0  0  0
    8.1042    7.1569    0.0000 H   0  0  0  0  0  0  0  0  0  0  0  0
    4.1874   14.6034    0.0000 H   0  0  0  0  0  0  0  0  0  0  0  0
    4.0503   15.4694    0.0000 H   0  0  0  0  0  0  0  0  0  0  0  0
    3.1843   15.3323    0.0000 H   0  0  0  0  0  0  0  0  0  0  0  0
    2.9272    3.8100    0.0000 H   0  0  0  0  0  0  0  0  0  0  0  0
    2.9272    5.4300    0.0000 H   0  0  0  0  0  0  0  0  0  0  0  0
    2.9272    2.4300    0.0000 H   0  0  0  0  0  0  0  0  0  0  0  0
    5.7331    2.4300    0.0000 H   0  0  0  0  0  0  0  0  0  0  0  0
    2.9272    0.8100    0.0000 H   0  0  0  0  0  0  0  0  0  0  0  0
    4.3301    0.0000    0.0000 H   0  0  0  0  0  0  0  0  0  0  0  0
   14.4050    7.7947    0.0000 H   0  0  0  0  0  0  0  0  0  0  0  0
   13.3312    7.7947    0.0000 H   0  0  0  0  0  0  0  0  0  0  0  0
   11.3312    7.4847    0.0000 H   0  0  0  0  0  0  0  0  0  0  0  0
  1 66  1  0  0  0  0
  2 28  1  0  0  0  0
  3 28  1  0  0  0  0
  4 28  1  0  0  0  0
  5 24  2  0  0  0  0
  6 64  1  0  0  0  0
  6 65  1  0  0  0  0
  7 14  1  0  0  0  0
  7 25  1  0  0  0  0
  7 29  1  0  0  0  0
  8 15  1  0  0  0  0
  8 24  1  0  0  0  0
  8 45  1  0  0  0  0
  9 21  1  0  0  0  0
  9 33  1  0  0  0  0
  9 51  1  0  0  0  0
 10 29  2  0  0  0  0
 10 30  1  0  0  0  0
 11 33  1  0  0  0  0
 11 34  2  0  0  0  0
 12 33  2  0  0  0  0
 12 37  1  0  0  0  0
 13 39  1  0  0  0  0
 13 41  2  0  0  0  0
 14 17  1  0  0  0  0
 14 18  2  0  0  0  0
 15 17  2  0  0  0  0
 15 19  1  0  0  0  0
 16 18  1  0  0  0  0
 16 19  2  0  0  0  0
 16 28  1  0  0  0  0
 17 42  1  0  0  0  0
 18 43  1  0  0  0  0
 19 44  1  0  0  0  0
 20 23  2  0  0  0  0
 20 24  1  0  0  0  0
 20 26  1  0  0  0  0
 21 22  2  0  0  0  0
 21 23  1  0  0  0  0
 22 27  1  0  0  0  0
 22 31  1  0  0  0  0
 23 46  1  0  0  0  0
 25 30  2  0  0  0  0
 25 47  1  0  0  0  0
 26 27  2  0  0  0  0
 26 48  1  0  0  0  0
 27 49  1  0  0  0  0
 29 50  1  0  0  0  0
 30 32  1  0  0  0  0
 31 52  1  0  0  0  0
 31 53  1  0  0  0  0
 31 54  1  0  0  0  0
 32 55  1  0  0  0  0
 32 56  1  0  0  0  0
 32 57  1  0  0  0  0
 34 35  1  0  0  0  0
 34 36  1  0  0  0  0
 35 38  1  0  0  0  0
 35 39  2  0  0  0  0
 36 37  2  0  0  0  0
 36 58  1  0  0  0  0
 37 59  1  0  0  0  0
 38 40  2  0  0  0  0
 38 60  1  0  0  0  0
 39 61  1  0  0  0  0
 40 41  1  0  0  0  0
 40 62  1  0  0  0  0
 41 63  1  0  0  0  0
M  END
> <PUBCHEM_COMPOUND_CID>
16757572

> <PUBCHEM_COMPOUND_CANONICALIZED>
1

> <PUBCHEM_CACTVS_COMPLEXITY>
817

> <PUBCHEM_CACTVS_HBOND_ACCEPTOR>
10

> <PUBCHEM_CACTVS_HBOND_DONOR>
4

> <PUBCHEM_CACTVS_ROTATABLE_BOND>
6

> <PUBCHEM_CACTVS_SUBSKEYS>
AAADceB7sYAEAAAAAAAAAAAAAAAAAWAAAAA8eIEAAAAAAAAB/AAAHwAQCAAADAjBnhQ/0JfMEACoAzV3dACCgC01EqAJ2CE4dNiIaPLA3dGUJQholALIyacciACOQAAAQAQCAACAAACACAQAAAAAAAAAAA==

> <PUBCHEM_IUPAC_OPENEYE_NAME>
4-methyl-N-[3-(4-methylimidazol-1-yl)-5-(trifluoromethyl)phenyl]-3-[[4-(3-pyridyl)pyrimidin-2-yl]amino]benzamide;hydrate;hydrochloride

> <PUBCHEM_IUPAC_CAS_NAME>
4-methyl-N-[3-(4-methyl-1-imidazolyl)-5-(trifluoromethyl)phenyl]-3-[[4-(3-pyridinyl)-2-pyrimidinyl]amino]benzamide;hydrate;hydrochloride

> <PUBCHEM_IUPAC_NAME_MARKUP>
4-methyl-<I>N</I>-[3-(4-methylimidazol-1-yl)-5-(trifluoromethyl)phenyl]-3-[(4-pyridin-3-ylpyrimidin-2-yl)amino]benzamide;hydrate;hydrochloride

> <PUBCHEM_IUPAC_NAME>
4-methyl-N-[3-(4-methylimidazol-1-yl)-5-(trifluoromethyl)phenyl]-3-[(4-pyridin-3-ylpyrimidin-2-yl)amino]benzamide;hydrate;hydrochloride

> <PUBCHEM_IUPAC_SYSTEMATIC_NAME>
4-methyl-N-[3-(4-methylimidazol-1-yl)-5-(trifluoromethyl)phenyl]-3-[(4-pyridin-3-ylpyrimidin-2-yl)amino]benzamide;hydrate;hydrochloride

> <PUBCHEM_IUPAC_TRADITIONAL_NAME>
4-methyl-N-[3-(4-methylimidazol-1-yl)-5-(trifluoromethyl)phenyl]-3-[[4-(3-pyridyl)pyrimidin-2-yl]amino]benzamide;hydrate;hydrochloride

> <PUBCHEM_IUPAC_INCHI>
InChI=1S/C28H22F3N7O.ClH.H2O/c1-17-5-6-19(10-25(17)37-27-33-9-7-24(36-27)20-4-3-8-32-14-20)26(39)35-22-11-21(28(29,30)31)12-23(13-22)38-15-18(2)34-16-38;;/h3-16H,1-2H3,(H,35,39)(H,33,36,37);1H;1H2

> <PUBCHEM_IUPAC_INCHIKEY>
YCBPQSYLYYBPDW-UHFFFAOYSA-N

> <PUBCHEM_EXACT_MASS>
583.1710352

> <PUBCHEM_MOLECULAR_FORMULA>
C28H25ClF3N7O2

> <PUBCHEM_MOLECULAR_WEIGHT>
584.0

> <PUBCHEM_OPENEYE_CAN_SMILES>
CC1=C(C=C(C=C1)C(=O)NC2=CC(=CC(=C2)C(F)(F)F)N3C=C(N=C3)C)NC4=NC=CC(=N4)C5=CN=CC=C5.O.Cl

> <PUBCHEM_OPENEYE_ISO_SMILES>
CC1=C(C=C(C=C1)C(=O)NC2=CC(=CC(=C2)C(F)(F)F)N3C=C(N=C3)C)NC4=NC=CC(=N4)C5=CN=CC=C5.O.Cl

> <PUBCHEM_CACTVS_TPSA>
98.6

> <PUBCHEM_MONOISOTOPIC_WEIGHT>
583.1710352

> <PUBCHEM_TOTAL_CHARGE>
0

> <PUBCHEM_HEAVY_ATOM_COUNT>
41

> <PUBCHEM_ATOM_DEF_STEREO_COUNT>
0

> <PUBCHEM_ATOM_UDEF_STEREO_COUNT>
0

> <PUBCHEM_BOND_DEF_STEREO_COUNT>
0

> <PUBCHEM_BOND_UDEF_STEREO_COUNT>
0

> <PUBCHEM_ISOTOPIC_ATOM_COUNT>
0

> <PUBCHEM_COMPONENT_COUNT>
3

> <PUBCHEM_CACTVS_TAUTO_COUNT>
-1

> <PUBCHEM_COORDINATE_TYPE>
1
5
255

> <PUBCHEM_BONDANNOTATIONS>
10  29  8
10  30  8
11  33  8
11  34  8
12  33  8
12  37  8
13  39  8
13  41  8
14  17  8
14  18  8
15  17  8
15  19  8
16  18  8
16  19  8
20  23  8
20  26  8
21  22  8
21  23  8
22  27  8
25  30  8
26  27  8
34  36  8
35  38  8
35  39  8
36  37  8
38  40  8
40  41  8
7  25  8
7  29  8

$$$$
44231134
  -OEChem-11282412102D

 44 48  0     0  0  0  0  0  0999 V2000
    3.9213    1.9602    0.0000 S   0  0  0  0  0  0  0  0  0  0  0  0
    4.0777    2.9479    0.0000 O   0  0  0  0  0  0  0  0  0  0  0  0
    3.7648    0.9725    0.0000 O   0  0  0  0  0  0  0  0  0  0  0  0
    4.9090    1.8038    0.0000 N   0  0  0  0  0  0  0  0  0  0  0  0
    6.8935    0.7735    0.0000 N   0  0  0  0  0  0  0  0  0  0  0  0
    7.8935    0.7735    0.0000 N   0  0  0  0  0  0  0  0  0  0  0  0
    6.9057    4.1594    0.0000 N   0  0  0  0  0  0  0  0  0  0  0  0
    6.5275   -2.2653    0.0000 N   0  0  0  0  0  0  0  0  0  0  0  0
    9.2058   -3.5700    0.0000 N   0  0  0  0  0  0  0  0  0  0  0  0
    7.3935   -3.7653    0.0000 N   0  0  0  0  0  0  0  0  0  0  0  0
    2.9336    2.1166    0.0000 C   0  0  0  0  0  0  0  0  0  0  0  0
    6.3058    1.5825    0.0000 C   0  0  0  0  0  0  0  0  0  0  0  0
    2.1564    2.7460    0.0000 C   0  0  0  0  0  0  0  0  0  0  0  0
    2.0000    1.7583    0.0000 C   0  0  0  0  0  0  0  0  0  0  0  0
    5.4967    0.9948    0.0000 C   0  0  0  0  0  0  0  0  0  0  0  0
    5.7180    2.3916    0.0000 C   0  0  0  0  0  0  0  0  0  0  0  0
    7.1148    2.1703    0.0000 C   0  0  0  0  0  0  0  0  0  0  0  0
    6.5845   -0.1775    0.0000 C   0  0  0  0  0  0  0  0  0  0  0  0
    7.0102    3.1648    0.0000 C   0  0  0  0  0  0  0  0  0  0  0  0
    7.3935   -0.7653    0.0000 C   0  0  0  0  0  0  0  0  0  0  0  0
    8.2026   -0.1775    0.0000 C   0  0  0  0  0  0  0  0  0  0  0  0
    7.3935   -1.7653    0.0000 C   0  0  0  0  0  0  0  0  0  0  0  0
    8.2596   -2.2653    0.0000 C   0  0  0  0  0  0  0  0  0  0  0  0
    8.2596   -3.2653    0.0000 C   0  0  0  0  0  0  0  0  0  0  0  0
    9.2058   -1.9606    0.0000 C   0  0  0  0  0  0  0  0  0  0  0  0
    6.5275   -3.2653    0.0000 C   0  0  0  0  0  0  0  0  0  0  0  0
    9.7894   -2.7653    0.0000 C   0  0  0  0  0  0  0  0  0  0  0  0
    2.9984    1.5000    0.0000 H   0  0  0  0  0  0  0  0  0  0  0  0
    4.9952    0.6303    0.0000 H   0  0  0  0  0  0  0  0  0  0  0  0
    5.8612    0.4932    0.0000 H   0  0  0  0  0  0  0  0  0  0  0  0
    6.2196    2.7560    0.0000 H   0  0  0  0  0  0  0  0  0  0  0  0
    5.3536    2.8932    0.0000 H   0  0  0  0  0  0  0  0  0  0  0  0
    2.4570    3.2882    0.0000 H   0  0  0  0  0  0  0  0  0  0  0  0
    1.5702    2.9478    0.0000 H   0  0  0  0  0  0  0  0  0  0  0  0
    1.3801    1.7474    0.0000 H   0  0  0  0  0  0  0  0  0  0  0  0
    2.1183    1.1497    0.0000 H   0  0  0  0  0  0  0  0  0  0  0  0
    7.3866    1.6131    0.0000 H   0  0  0  0  0  0  0  0  0  0  0  0
    7.7108    2.3412    0.0000 H   0  0  0  0  0  0  0  0  0  0  0  0
    5.9949   -0.3691    0.0000 H   0  0  0  0  0  0  0  0  0  0  0  0
    8.7922   -0.3691    0.0000 H   0  0  0  0  0  0  0  0  0  0  0  0
    9.3984   -1.3713    0.0000 H   0  0  0  0  0  0  0  0  0  0  0  0
    9.3984   -4.1594    0.0000 H   0  0  0  0  0  0  0  0  0  0  0  0
    5.9906   -3.5753    0.0000 H   0  0  0  0  0  0  0  0  0  0  0  0
   10.4094   -2.7653    0.0000 H   0  0  0  0  0  0  0  0  0  0  0  0
  1  2  2  0  0  0  0
  1  3  2  0  0  0  0
  1  4  1  0  0  0  0
  1 11  1  0  0  0  0
  4 15  1  0  0  0  0
  4 16  1  0  0  0  0
  5  6  1  0  0  0  0
  5 12  1  0  0  0  0
  5 18  1  0  0  0  0
  6 21  2  0  0  0  0
  7 19  3  0  0  0  0
  8 22  1  0  0  0  0
  8 26  2  0  0  0  0
  9 24  1  0  0  0  0
  9 27  1  0  0  0  0
  9 42  1  0  0  0  0
 10 24  2  0  0  0  0
 10 26  1  0  0  0  0
 11 13  1  0  0  0  0
 11 14  1  0  0  0  0
 11 28  1  0  0  0  0
 12 15  1  0  0  0  0
 12 16  1  0  0  0  0
 12 17  1  0  0  0  0
 13 14  1  0  0  0  0
 13 33  1  0  0  0  0
 13 34  1  0  0  0  0
 14 35  1  0  0  0  0
 14 36  1  0  0  0  0
 15 29  1  0  0  0  0
 15 30  1  0  0  0  0
 16 31  1  0  0  0  0
 16 32  1  0  0  0  0
 17 19  1  0  0  0  0
 17 37  1  0  0  0  0
 17 38  1  0  0  0  0
 18 20  2  0  0  0  0
 18 39  1  0  0  0  0
 20 21  1  0  0  0  0
 20 22  1  0  0  0  0
 21 40  1  0  0  0  0
 22 23  2  0  0  0  0
 23 24  1  0  0  0  0
 23 25  1  0  0  0  0
 25 27  2  0  0  0  0
 25 41  1  0  0  0  0
 26 43  1  0  0  0  0
 27 44  1  0  0  0  0
M  END
> <PUBCHEM_COMPOUND_CID>
44231134

> <PUBCHEM_COMPOUND_CANONICALIZED>
1

> <PUBCHEM_CACTVS_COMPLEXITY>
734

> <PUBCHEM_CACTVS_HBOND_ACCEPTOR>
7

> <PUBCHEM_CACTVS_HBOND_DONOR>
1

> <PUBCHEM_CACTVS_ROTATABLE_BOND>
5

> <PUBCHEM_CACTVS_SUBSKEYS>
AAADceB7sABAAAAAAAAAAAAAGABYAWLAAAAsAAAAAAAAAFgB/gAAHAQYQAAADIjFXwS9sN7JkAKyBzZnZHDShCmxgqAZ2aA4ZJiI6OLA2dGUpAhomALIyC8QAAAOAAAAAAAAAAAAAAAAAAAAAAAAAAAAAA==

> <PUBCHEM_IUPAC_OPENEYE_NAME>
2-[1-cyclopropylsulfonyl-3-[4-(7H-pyrrolo[2,3-d]pyrimidin-4-yl)pyrazol-1-yl]azetidin-3-yl]acetonitrile

> <PUBCHEM_IUPAC_CAS_NAME>
2-[1-cyclopropylsulfonyl-3-[4-(7H-pyrrolo[2,3-d]pyrimidin-4-yl)-1-pyrazolyl]-3-azetidinyl]acetonitrile

> <PUBCHEM_IUPAC_NAME_MARKUP>
2-[1-cyclopropylsulfonyl-3-[4-(7<I>H</I>-pyrrolo[2,3-d]pyrimidin-4-yl)pyrazol-1-yl]azetidin-3-yl]acetonitrile

> <PUBCHEM_IUPAC_NAME>
2-[1-cyclopropylsulfonyl-3-[4-(7H-pyrrolo[2,3-d]pyrimidin-4-yl)pyrazol-1-yl]azetidin-3-yl]acetonitrile

> <PUBCHEM_IUPAC_SYSTEMATIC_NAME>
2-[1-cyclopropylsulfonyl-3-[4-(7H-pyrrolo[2,3-d]pyrimidin-4-yl)pyrazol-1-yl]azetidin-3-yl]ethanenitrile

> <PUBCHEM_IUPAC_TRADITIONAL_NAME>
2-[1-cyclopropylsulfonyl-3-[4-(7H-pyrrolo[2,3-d]pyrimidin-4-yl)pyrazol-1-yl]azetidin-3-yl]acetonitrile

> <PUBCHEM_IUPAC_INCHI>
InChI=1S/C17H17N7O2S/c18-5-4-17(9-23(10-17)27(25,26)13-1-2-13)24-8-12(7-22-24)15-14-3-6-19-16(14)21-11-20-15/h3,6-8,11,13H,1-2,4,9-10H2,(H,19,20,21)

> <PUBCHEM_IUPAC_INCHIKEY>
RVOUEXFKIYNODQ-UHFFFAOYSA-N

> <PUBCHEM_XLOGP3_AA>
-0.3

> <PUBCHEM_EXACT_MASS>
383.11644398

> <PUBCHEM_MOLECULAR_FORMULA>
C17H17N7O2S

> <PUBCHEM_MOLECULAR_WEIGHT>
383.4

> <PUBCHEM_OPENEYE_CAN_SMILES>
C1CC1S(=O)(=O)N2CC(C2)(CC#N)N3C=C(C=N3)C4=C5C=CNC5=NC=N4

> <PUBCHEM_OPENEYE_ISO_SMILES>
C1CC1S(=O)(=O)N2CC(C2)(CC#N)N3C=C(C=N3)C4=C5C=CNC5=NC=N4

> <PUBCHEM_CACTVS_TPSA>
129

> <PUBCHEM_MONOISOTOPIC_WEIGHT>
383.11644398

> <PUBCHEM_TOTAL_CHARGE>
0

> <PUBCHEM_HEAVY_ATOM_COUNT>
27

> <PUBCHEM_ATOM_DEF_STEREO_COUNT>
0

> <PUBCHEM_ATOM_UDEF_STEREO_COUNT>
0

> <PUBCHEM_BOND_DEF_STEREO_COUNT>
0

> <PUBCHEM_BOND_UDEF_STEREO_COUNT>
0

> <PUBCHEM_ISOTOPIC_ATOM_COUNT>
0

> <PUBCHEM_COMPONENT_COUNT>
1

> <PUBCHEM_CACTVS_TAUTO_COUNT>
-1

> <PUBCHEM_COORDINATE_TYPE>
1
5
255

> <PUBCHEM_BONDANNOTATIONS>
10  24  8
10  26  8
18  20  8
20  21  8
22  23  8
23  24  8
23  25  8
25  27  8
5  18  8
5  6  8
6  21  8
8  22  8
8  26  8
9  24  8
9  27  8

$$$$
54767257
  -OEChem-11282412102D

 56 58  0     0  0  0  0  0  0999 V2000
   10.9108    0.0000    0.0000 Cl  0  0  0  0  0  0  0  0  0  0  0  0
   12.6543    0.9799    0.0000 Cl  0  0  0  0  0  0  0  0  0  0  0  0
    5.8271    9.6860    0.0000 Cl  0  0  0  0  0  0  0  0  0  0  0  0
    9.1904    1.0200    0.0000 F   0  0  0  0  0  0  0  0  0  0  0  0
    5.7331    4.0544    0.0000 O   0  0  0  0  0  0  0  0  0  0  0  0
    2.2690    7.0544    0.0000 O   0  0  0  0  0  0  0  0  0  0  0  0
    5.7331    6.0544    0.0000 O   0  0  0  0  0  0  0  0  0  0  0  0
    3.1350    5.5544    0.0000 N   0  0  0  0  0  0  0  0  0  0  0  0
    9.2251    6.0891    0.0000 N   0  0  0  0  0  0  0  0  0  0  0  0
    9.2135    3.0198    0.0000 N   0  0  0  0  0  0  0  0  0  0  0  0
   10.1312    4.5336    0.0000 N   0  0  0  0  0  0  0  0  0  0  0  0
    4.8671    4.5544    0.0000 C   0  0  0  0  0  0  0  0  0  0  0  0
    4.0010    4.0544    0.0000 C   0  0  0  0  0  0  0  0  0  0  0  0
    4.8671    5.5544    0.0000 C   0  0  0  0  0  0  0  0  0  0  0  0
    3.1350    4.5544    0.0000 C   0  0  0  0  0  0  0  0  0  0  0  0
    4.0010    6.0544    0.0000 C   0  0  0  0  0  0  0  0  0  0  0  0
    2.2690    6.0544    0.0000 C   0  0  0  0  0  0  0  0  0  0  0  0
    6.5991    4.5544    0.0000 C   0  0  0  0  0  0  0  0  0  0  0  0
    7.4651    4.0544    0.0000 C   0  0  0  0  0  0  0  0  0  0  0  0
    6.5991    5.5544    0.0000 C   0  0  0  0  0  0  0  0  0  0  0  0
    1.4030    5.5544    0.0000 C   0  0  0  0  0  0  0  0  0  0  0  0
    8.3312    4.5544    0.0000 C   0  0  0  0  0  0  0  0  0  0  0  0
    8.3312    5.5544    0.0000 C   0  0  0  0  0  0  0  0  0  0  0  0
    7.4651    6.0544    0.0000 C   0  0  0  0  0  0  0  0  0  0  0  0
    9.2251    4.0198    0.0000 C   0  0  0  0  0  0  0  0  0  0  0  0
    0.5369    6.0544    0.0000 C   0  0  0  0  0  0  0  0  0  0  0  0
   10.1312    5.5752    0.0000 C   0  0  0  0  0  0  0  0  0  0  0  0
   10.0737    2.5098    0.0000 C   0  0  0  0  0  0  0  0  0  0  0  0
    5.7331    7.0544    0.0000 C   0  0  0  0  0  0  0  0  0  0  0  0
   10.0622    1.5099    0.0000 C   0  0  0  0  0  0  0  0  0  0  0  0
   10.9455    2.9998    0.0000 C   0  0  0  0  0  0  0  0  0  0  0  0
   10.9224    0.9999    0.0000 C   0  0  0  0  0  0  0  0  0  0  0  0
   11.8057    2.4898    0.0000 C   0  0  0  0  0  0  0  0  0  0  0  0
   11.7941    1.4899    0.0000 C   0  0  0  0  0  0  0  0  0  0  0  0
    5.4040    4.8644    0.0000 H   0  0  0  0  0  0  0  0  0  0  0  0
    3.6025    3.5795    0.0000 H   0  0  0  0  0  0  0  0  0  0  0  0
    4.3996    3.5795    0.0000 H   0  0  0  0  0  0  0  0  0  0  0  0
    5.4776    5.4468    0.0000 H   0  0  0  0  0  0  0  0  0  0  0  0
    5.0791    6.1370    0.0000 H   0  0  0  0  0  0  0  0  0  0  0  0
    2.5244    4.6621    0.0000 H   0  0  0  0  0  0  0  0  0  0  0  0
    2.9230    3.9718    0.0000 H   0  0  0  0  0  0  0  0  0  0  0  0
    4.3996    6.5294    0.0000 H   0  0  0  0  0  0  0  0  0  0  0  0
    3.6025    6.5294    0.0000 H   0  0  0  0  0  0  0  0  0  0  0  0
    7.4651    3.4344    0.0000 H   0  0  0  0  0  0  0  0  0  0  0  0
    1.4030    4.9344    0.0000 H   0  0  0  0  0  0  0  0  0  0  0  0
    7.4651    6.6744    0.0000 H   0  0  0  0  0  0  0  0  0  0  0  0
    0.5369    6.6744    0.0000 H   0  0  0  0  0  0  0  0  0  0  0  0
    0.0000    5.7444    0.0000 H   0  0  0  0  0  0  0  0  0  0  0  0
    8.6731    2.7161    0.0000 H   0  0  0  0  0  0  0  0  0  0  0  0
   10.6669    5.8873    0.0000 H   0  0  0  0  0  0  0  0  0  0  0  0
    6.3531    7.0544    0.0000 H   0  0  0  0  0  0  0  0  0  0  0  0
    5.7331    7.6744    0.0000 H   0  0  0  0  0  0  0  0  0  0  0  0
    5.1131    7.0544    0.0000 H   0  0  0  0  0  0  0  0  0  0  0  0
   10.9526    3.6198    0.0000 H   0  0  0  0  0  0  0  0  0  0  0  0
   12.3461    2.7936    0.0000 H   0  0  0  0  0  0  0  0  0  0  0  0
    6.8271    9.6860    0.0000 H   0  0  0  0  0  0  0  0  0  0  0  0
  1 32  1  0  0  0  0
  2 34  1  0  0  0  0
  3 56  1  0  0  0  0
  4 30  1  0  0  0  0
  5 12  1  0  0  0  0
  5 18  1  0  0  0  0
  6 17  2  0  0  0  0
  7 20  1  0  0  0  0
  7 29  1  0  0  0  0
  8 15  1  0  0  0  0
  8 16  1  0  0  0  0
  8 17  1  0  0  0  0
  9 23  1  0  0  0  0
  9 27  2  0  0  0  0
 10 25  1  0  0  0  0
 10 28  1  0  0  0  0
 10 49  1  0  0  0  0
 11 25  2  0  0  0  0
 11 27  1  0  0  0  0
 12 13  1  0  0  0  0
 12 14  1  0  0  0  0
 12 35  1  0  0  0  0
 13 15  1  0  0  0  0
 13 36  1  0  0  0  0
 13 37  1  0  0  0  0
 14 16  1  0  0  0  0
 14 38  1  0  0  0  0
 14 39  1  0  0  0  0
 15 40  1  0  0  0  0
 15 41  1  0  0  0  0
 16 42  1  0  0  0  0
 16 43  1  0  0  0  0
 17 21  1  0  0  0  0
 18 19  1  0  0  0  0
 18 20  2  0  0  0  0
 19 22  2  0  0  0  0
 19 44  1  0  0  0  0
 20 24  1  0  0  0  0
 21 26  2  0  0  0  0
 21 45  1  0  0  0  0
 22 23  1  0  0  0  0
 22 25  1  0  0  0  0
 23 24  2  0  0  0  0
 24 46  1  0  0  0  0
 26 47  1  0  0  0  0
 26 48  1  0  0  0  0
 27 50  1  0  0  0  0
 28 30  2  0  0  0  0
 28 31  1  0  0  0  0
 29 51  1  0  0  0  0
 29 52  1  0  0  0  0
 29 53  1  0  0  0  0
 30 32  1  0  0  0  0
 31 33  2  0  0  0  0
 31 54  1  0  0  0  0
 32 34  2  0  0  0  0
 33 34  1  0  0  0  0
 33 55  1  0  0  0  0
M  END
> <PUBCHEM_COMPOUND_CID>
54767257

> <PUBCHEM_COMPOUND_CANONICALIZED>
1

> <PUBCHEM_CACTVS_COMPLEXITY>
684

> <PUBCHEM_CACTVS_HBOND_ACCEPTOR>
7

> <PUBCHEM_CACTVS_HBOND_DONOR>
2

> <PUBCHEM_CACTVS_ROTATABLE_BOND>
6

> <PUBCHEM_CACTVS_SUBSKEYS>
AAADceB7sQAGAAAAAAAAAAAAAAAAAAAAAAA8eIEAAAAAAACx9AAAHwIQAAAADB7hni439vfIFACoAydzdACCiCkxJ6AJ2mA+7tiNLuLF+tuGPCru1hvK6Kew0BMOIEBBAgICQARAgIIEBASACAAAAAAAAA==

> <PUBCHEM_IUPAC_OPENEYE_NAME>
1-[4-[4-(3,4-dichloro-2-fluoro-anilino)-7-methoxy-quinazolin-6-yl]oxy-1-piperidyl]prop-2-en-1-one;hydrochloride

> <PUBCHEM_IUPAC_CAS_NAME>
1-[4-[[4-(3,4-dichloro-2-fluoroanilino)-7-methoxy-6-quinazolinyl]oxy]-1-piperidinyl]-2-propen-1-one;hydrochloride

> <PUBCHEM_IUPAC_NAME_MARKUP>
1-[4-[4-(3,4-dichloro-2-fluoroanilino)-7-methoxyquinazolin-6-yl]oxypiperidin-1-yl]prop-2-en-1-one;hydrochloride

> <PUBCHEM_IUPAC_NAME>
1-[4-[4-(3,4-dichloro-2-fluoroanilino)-7-methoxyquinazolin-6-yl]oxypiperidin-1-yl]prop-2-en-1-one;hydrochloride

> <PUBCHEM_IUPAC_SYSTEMATIC_NAME>
1-[4-[4-[[3,4-bis(chloranyl)-2-fluoranyl-phenyl]amino]-7-methoxy-quinazolin-6-yl]oxypiperidin-1-yl]prop-2-en-1-one;hydrochloride

> <PUBCHEM_IUPAC_TRADITIONAL_NAME>
1-[4-[4-(3,4-dichloro-2-fluoro-anilino)-7-methoxy-quinazolin-6-yl]oxypiperidino]prop-2-en-1-one;hydrochloride

> <PUBCHEM_IUPAC_INCHI>
InChI=1S/C23H21Cl2FN4O3.ClH/c1-3-20(31)30-8-6-13(7-9-30)33-19-10-14-17(11-18(19)32-2)27-12-28-23(14)29-16-5-4-15(24)21(25)22(16)26;/h3-5,10-13H,1,6-9H2,2H3,(H,27,28,29);1H

> <PUBCHEM_IUPAC_INCHIKEY>
OMYSOLOMWJFVNK-UHFFFAOYSA-N

> <PUBCHEM_EXACT_MASS>
526.074152

> <PUBCHEM_MOLECULAR_FORMULA>
C23H22Cl3FN4O3

> <PUBCHEM_MOLECULAR_WEIGHT>
527.8

> <PUBCHEM_OPENEYE_CAN_SMILES>
COC1=C(C=C2C(=C1)N=CN=C2NC3=C(C(=C(C=C3)Cl)Cl)F)OC4CCN(CC4)C(=O)C=C.Cl

> <PUBCHEM_OPENEYE_ISO_SMILES>
COC1=C(C=C2C(=C1)N=CN=C2NC3=C(C(=C(C=C3)Cl)Cl)F)OC4CCN(CC4)C(=O)C=C.Cl

> <PUBCHEM_CACTVS_TPSA>
76.6

> <PUBCHEM_MONOISOTOPIC_WEIGHT>
526.074152

> <PUBCHEM_TOTAL_CHARGE>
0

> <PUBCHEM_HEAVY_ATOM_COUNT>
34

> <PUBCHEM_ATOM_DEF_STEREO_COUNT>
0

> <PUBCHEM_ATOM_UDEF_STEREO_COUNT>
0

> <PUBCHEM_BOND_DEF_STEREO_COUNT>
0

> <PUBCHEM_BOND_UDEF_STEREO_COUNT>
0

> <PUBCHEM_ISOTOPIC_ATOM_COUNT>
0

> <PUBCHEM_COMPONENT_COUNT>
2

> <PUBCHEM_CACTVS_TAUTO_COUNT>
-1

> <PUBCHEM_COORDINATE_TYPE>
1
5
255

> <PUBCHEM_BONDANNOTATIONS>
11  25  8
11  27  8
18  19  8
18  20  8
19  22  8
20  24  8
22  23  8
22  25  8
23  24  8
28  30  8
28  31  8
30  32  8
31  33  8
32  34  8
33  34  8
9  23  8
9  27  8

$$$$
58071385
  -OEChem-11282412102D

 56 59  0     0  0  0  0  0  0999 V2000
   13.2063    3.4168    0.0000 P   0  0  0  0  0  0  0  0  0  0  0  0
    2.8660   -3.4952    0.0000 F   0  0  0  0  0  0  0  0  0  0  0  0
   11.6065   -0.2999    0.0000 O   0  0  0  0  0  0  0  0  0  0  0  0
   12.8956    2.4663    0.0000 O   0  0  0  0  0  0  0  0  0  0  0  0
   13.1901    0.5048    0.0000 O   0  0  0  0  0  0  0  0  0  0  0  0
    2.8660   -1.4952    0.0000 O   0  0  0  0  0  0  0  0  0  0  0  0
   13.5170    4.3673    0.0000 O   0  0  0  0  0  0  0  0  0  0  0  0
   14.1568    3.1062    0.0000 O   0  0  0  0  0  0  0  0  0  0  0  0
   12.2558    3.7275    0.0000 O   0  0  0  0  0  0  0  0  0  0  0  0
   11.6065    1.3096    0.0000 N   0  0  0  0  0  0  0  0  0  0  0  0
    8.0622    1.5048    0.0000 N   0  0  0  0  0  0  0  0  0  0  0  0
    7.1962    0.0048    0.0000 N   0  0  0  0  0  0  0  0  0  0  0  0
    6.3301   -1.4952    0.0000 N   0  0  0  0  0  0  0  0  0  0  0  0
    5.4641    0.0048    0.0000 N   0  0  0  0  0  0  0  0  0  0  0  0
   10.6603    1.0048    0.0000 C   0  0  0  0  0  0  0  0  0  0  0  0
   10.6603    0.0048    0.0000 C   0  0  0  0  0  0  0  0  0  0  0  0
    9.7942    1.5048    0.0000 C   0  0  0  0  0  0  0  0  0  0  0  0
    8.9282    1.0048    0.0000 C   0  0  0  0  0  0  0  0  0  0  0  0
    9.7942   -0.4952    0.0000 C   0  0  0  0  0  0  0  0  0  0  0  0
   11.9171    2.2601    0.0000 C   0  0  0  0  0  0  0  0  0  0  0  0
    8.9282    0.0048    0.0000 C   0  0  0  0  0  0  0  0  0  0  0  0
   12.1901    0.5048    0.0000 C   0  0  0  0  0  0  0  0  0  0  0  0
    7.1962    1.0048    0.0000 C   0  0  0  0  0  0  0  0  0  0  0  0
    6.3301    1.5048    0.0000 C   0  0  0  0  0  0  0  0  0  0  0  0
    5.4641   -1.9952    0.0000 C   0  0  0  0  0  0  0  0  0  0  0  0
    6.3301   -0.4952    0.0000 C   0  0  0  0  0  0  0  0  0  0  0  0
    4.5981   -3.4952    0.0000 C   0  0  0  0  0  0  0  0  0  0  0  0
    5.4641   -2.9952    0.0000 C   0  0  0  0  0  0  0  0  0  0  0  0
    5.4641    1.0048    0.0000 C   0  0  0  0  0  0  0  0  0  0  0  0
    4.5981   -1.4952    0.0000 C   0  0  0  0  0  0  0  0  0  0  0  0
    6.3301    2.5048    0.0000 C   0  0  0  0  0  0  0  0  0  0  0  0
    3.7320   -1.9952    0.0000 C   0  0  0  0  0  0  0  0  0  0  0  0
    3.7320   -2.9952    0.0000 C   0  0  0  0  0  0  0  0  0  0  0  0
    4.5981   -4.4952    0.0000 C   0  0  0  0  0  0  0  0  0  0  0  0
    2.0000   -1.9952    0.0000 C   0  0  0  0  0  0  0  0  0  0  0  0
    9.7942    2.1248    0.0000 H   0  0  0  0  0  0  0  0  0  0  0  0
    9.7942   -1.1152    0.0000 H   0  0  0  0  0  0  0  0  0  0  0  0
   11.8966    2.8797    0.0000 H   0  0  0  0  0  0  0  0  0  0  0  0
   11.3033    2.3474    0.0000 H   0  0  0  0  0  0  0  0  0  0  0  0
    8.3913   -0.3052    0.0000 H   0  0  0  0  0  0  0  0  0  0  0  0
    8.0622    2.1248    0.0000 H   0  0  0  0  0  0  0  0  0  0  0  0
    6.8671   -1.8052    0.0000 H   0  0  0  0  0  0  0  0  0  0  0  0
    6.0010   -3.3052    0.0000 H   0  0  0  0  0  0  0  0  0  0  0  0
    4.9272    1.3148    0.0000 H   0  0  0  0  0  0  0  0  0  0  0  0
    4.5981   -0.8752    0.0000 H   0  0  0  0  0  0  0  0  0  0  0  0
    6.9501    2.5048    0.0000 H   0  0  0  0  0  0  0  0  0  0  0  0
    6.3301    3.1248    0.0000 H   0  0  0  0  0  0  0  0  0  0  0  0
    5.7101    2.5048    0.0000 H   0  0  0  0  0  0  0  0  0  0  0  0
    3.9781   -4.4952    0.0000 H   0  0  0  0  0  0  0  0  0  0  0  0
    4.5981   -5.1152    0.0000 H   0  0  0  0  0  0  0  0  0  0  0  0
    5.2181   -4.4952    0.0000 H   0  0  0  0  0  0  0  0  0  0  0  0
   14.1236    4.4952    0.0000 H   0  0  0  0  0  0  0  0  0  0  0  0
   14.2847    2.4995    0.0000 H   0  0  0  0  0  0  0  0  0  0  0  0
    1.6900   -1.4582    0.0000 H   0  0  0  0  0  0  0  0  0  0  0  0
    1.4631   -2.3052    0.0000 H   0  0  0  0  0  0  0  0  0  0  0  0
    2.3100   -2.5321    0.0000 H   0  0  0  0  0  0  0  0  0  0  0  0
  1  4  1  0  0  0  0
  1  7  1  0  0  0  0
  1  8  1  0  0  0  0
  1  9  2  0  0  0  0
  2 33  1  0  0  0  0
  3 16  1  0  0  0  0
  3 22  1  0  0  0  0
  4 20  1  0  0  0  0
  5 22  2  0  0  0  0
  6 32  1  0  0  0  0
  6 35  1  0  0  0  0
  7 52  1  0  0  0  0
  8 53  1  0  0  0  0
 10 15  1  0  0  0  0
 10 20  1  0  0  0  0
 10 22  1  0  0  0  0
 11 18  1  0  0  0  0
 11 23  1  0  0  0  0
 11 41  1  0  0  0  0
 12 23  2  0  0  0  0
 12 26  1  0  0  0  0
 13 25  1  0  0  0  0
 13 26  1  0  0  0  0
 13 42  1  0  0  0  0
 14 26  2  0  0  0  0
 14 29  1  0  0  0  0
 15 16  2  0  0  0  0
 15 17  1  0  0  0  0
 16 19  1  0  0  0  0
 17 18  2  0  0  0  0
 17 36  1  0  0  0  0
 18 21  1  0  0  0  0
 19 21  2  0  0  0  0
 19 37  1  0  0  0  0
 20 38  1  0  0  0  0
 20 39  1  0  0  0  0
 21 40  1  0  0  0  0
 23 24  1  0  0  0  0
 24 29  2  0  0  0  0
 24 31  1  0  0  0  0
 25 28  1  0  0  0  0
 25 30  2  0  0  0  0
 27 28  2  0  0  0  0
 27 33  1  0  0  0  0
 27 34  1  0  0  0  0
 28 43  1  0  0  0  0
 29 44  1  0  0  0  0
 30 32  1  0  0  0  0
 30 45  1  0  0  0  0
 31 46  1  0  0  0  0
 31 47  1  0  0  0  0
 31 48  1  0  0  0  0
 32 33  2  0  0  0  0
 34 49  1  0  0  0  0
 34 50  1  0  0  0  0
 34 51  1  0  0  0  0
 35 54  1  0  0  0  0
 35 55  1  0  0  0  0
 35 56  1  0  0  0  0
M  END
> <PUBCHEM_COMPOUND_CID>
58071385

> <PUBCHEM_COMPOUND_CANONICALIZED>
1

> <PUBCHEM_CACTVS_COMPLEXITY>
793

> <PUBCHEM_CACTVS_HBOND_ACCEPTOR>
12

> <PUBCHEM_CACTVS_HBOND_DONOR>
4

> <PUBCHEM_CACTVS_ROTATABLE_BOND>
8

> <PUBCHEM_CACTVS_SUBSKEYS>
AAADceB7uQIAAAAAAAAAAAAAAAAAAWAAAAA8YIAAAAAAAFgB0AAAHwAQCCAADAzBmg4//pfIFRCoQjZnfICCiCkxIqAJ2CAvbJiOLuLE+duNNihu1hvY6Cew0BMOAEABQgQAEAAAgAKECAAgAAAAAAAAAA==

> <PUBCHEM_IUPAC_OPENEYE_NAME>
[5-[[2-(4-fluoro-3-methoxy-5-methyl-anilino)-5-methyl-pyrimidin-4-yl]amino]-2-oxo-1,3-benzoxazol-3-yl]methyl dihydrogen phosphate

> <PUBCHEM_IUPAC_CAS_NAME>
[5-[[2-(4-fluoro-3-methoxy-5-methylanilino)-5-methyl-4-pyrimidinyl]amino]-2-oxo-1,3-benzoxazol-3-yl]methyl dihydrogen phosphate

> <PUBCHEM_IUPAC_NAME_MARKUP>
[5-[[2-(4-fluoro-3-methoxy-5-methylanilino)-5-methylpyrimidin-4-yl]amino]-2-oxo-1,3-benzoxazol-3-yl]methyl dihydrogen phosphate

> <PUBCHEM_IUPAC_NAME>
[5-[[2-(4-fluoro-3-methoxy-5-methylanilino)-5-methylpyrimidin-4-yl]amino]-2-oxo-1,3-benzoxazol-3-yl]methyl dihydrogen phosphate

> <PUBCHEM_IUPAC_SYSTEMATIC_NAME>
[5-[[2-[(4-fluoranyl-3-methoxy-5-methyl-phenyl)amino]-5-methyl-pyrimidin-4-yl]amino]-2-oxidanylidene-1,3-benzoxazol-3-yl]methyl dihydrogen phosphate

> <PUBCHEM_IUPAC_TRADITIONAL_NAME>
[5-[[2-(4-fluoro-3-methoxy-5-methyl-anilino)-5-methyl-pyrimidin-4-yl]amino]-2-keto-1,3-benzoxazol-3-yl]methyl dihydrogen phosphate

> <PUBCHEM_IUPAC_INCHI>
InChI=1S/C21H21FN5O7P/c1-11-6-14(8-17(32-3)18(11)22)25-20-23-9-12(2)19(26-20)24-13-4-5-16-15(7-13)27(21(28)34-16)10-33-35(29,30)31/h4-9H,10H2,1-3H3,(H2,29,30,31)(H2,23,24,25,26)

> <PUBCHEM_IUPAC_INCHIKEY>
JTUBTEKGIDQZMZ-UHFFFAOYSA-N

> <PUBCHEM_XLOGP3_AA>
2.5

> <PUBCHEM_EXACT_MASS>
505.11626319

> <PUBCHEM_MOLECULAR_FORMULA>
C21H21FN5O7P

> <PUBCHEM_MOLECULAR_WEIGHT>
505.4

> <PUBCHEM_OPENEYE_CAN_SMILES>
CC1=CC(=CC(=C1F)OC)NC2=NC=C(C(=N2)NC3=CC4=C(C=C3)OC(=O)N4COP(=O)(O)O)C

> <PUBCHEM_OPENEYE_ISO_SMILES>
CC1=CC(=CC(=C1F)OC)NC2=NC=C(C(=N2)NC3=CC4=C(C=C3)OC(=O)N4COP(=O)(O)O)C

> <PUBCHEM_CACTVS_TPSA>
155

> <PUBCHEM_MONOISOTOPIC_WEIGHT>
505.11626319

> <PUBCHEM_TOTAL_CHARGE>
0

> <PUBCHEM_HEAVY_ATOM_COUNT>
35

> <PUBCHEM_ATOM_DEF_STEREO_COUNT>
0

> <PUBCHEM_ATOM_UDEF_STEREO_COUNT>
0

> <PUBCHEM_BOND_DEF_STEREO_COUNT>
0

> <PUBCHEM_BOND_UDEF_STEREO_COUNT>
0

> <PUBCHEM_ISOTOPIC_ATOM_COUNT>
0

> <PUBCHEM_COMPONENT_COUNT>
1

> <PUBCHEM_CACTVS_TAUTO_COUNT>
-1

> <PUBCHEM_COORDINATE_TYPE>
1
5
255

> <PUBCHEM_BONDANNOTATIONS>
10  15  8
10  22  8
12  23  8
12  26  8
14  26  8
14  29  8
15  16  8
15  17  8
16  19  8
17  18  8
18  21  8
19  21  8
23  24  8
24  29  8
25  28  8
25  30  8
27  28  8
27  33  8
3  16  8
3  22  8
30  32  8
32  33  8

$$$$
86280672
  -OEChem-11282412102D

 58 61  0     1  0  0  0  0  0999 V2000
    2.9069    0.0358    0.0000 F   0  0  0  0  0  0  0  0  0  0  0  0
    6.3710   -1.9642    0.0000 F   0  0  0  0  0  0  0  0  0  0  0  0
    2.0409   -5.4642    0.0000 F   0  0  0  0  0  0  0  0  0  0  0  0
    3.4069   -5.8302    0.0000 F   0  0  0  0  0  0  0  0  0  0  0  0
    2.4069   -4.0981    0.0000 F   0  0  0  0  0  0  0  0  0  0  0  0
    5.5050   -3.4642    0.0000 O   0  0  0  0  0  0  0  0  0  0  0  0
    4.6390    1.0358    0.0000 N   0  0  0  0  0  0  0  0  0  0  0  0
    5.3461    3.1572    0.0000 N   0  0  0  0  0  0  0  0  0  0  0  0
    5.1896    4.1448    0.0000 N   0  0  0  0  0  0  0  0  0  0  0  0
    2.0000    2.6395    0.0000 N   0  0  0  0  0  0  0  0  0  0  0  0
    9.3736    3.7950    0.0000 N   0  0  0  0  0  0  0  0  0  0  0  0
    9.2171    4.7827    0.0000 N   0  0  0  0  0  0  0  0  0  0  0  0
    3.7729   -3.4642    0.0000 N   0  0  0  0  0  0  0  0  0  0  0  0
    4.6390    2.4501    0.0000 C   0  0  0  0  0  0  0  0  0  0  0  0
    5.3461    1.7430    0.0000 C   0  0  0  0  0  0  0  0  0  0  0  0
    3.9318    1.7430    0.0000 C   0  0  0  0  0  0  0  0  0  0  0  0
    3.9318    3.1572    0.0000 C   0  0  0  0  0  0  0  0  0  0  0  0
    4.6390    0.0358    0.0000 C   0  0  0  0  0  0  0  0  0  0  0  0
    6.3338    3.0007    0.0000 C   0  0  0  0  0  0  0  0  0  0  0  0
    6.7877    3.8917    0.0000 C   0  0  0  0  0  0  0  0  0  0  0  0
    2.9659    2.8983    0.0000 C   0  0  0  0  0  0  0  0  0  0  0  0
    3.7729   -0.4642    0.0000 C   0  0  0  0  0  0  0  0  0  0  0  0
    5.5050   -0.4642    0.0000 C   0  0  0  0  0  0  0  0  0  0  0  0
    6.0806    4.5988    0.0000 C   0  0  0  0  0  0  0  0  0  0  0  0
    7.7754    4.0482    0.0000 C   0  0  0  0  0  0  0  0  0  0  0  0
    5.5050   -1.4642    0.0000 C   0  0  0  0  0  0  0  0  0  0  0  0
    3.7729   -1.4642    0.0000 C   0  0  0  0  0  0  0  0  0  0  0  0
    4.6390   -1.9642    0.0000 C   0  0  0  0  0  0  0  0  0  0  0  0
    8.4825    3.3411    0.0000 C   0  0  0  0  0  0  0  0  0  0  0  0
    8.2294    4.9392    0.0000 C   0  0  0  0  0  0  0  0  0  0  0  0
    4.6390   -2.9642    0.0000 C   0  0  0  0  0  0  0  0  0  0  0  0
    8.3261    2.3534    0.0000 C   0  0  0  0  0  0  0  0  0  0  0  0
    7.7754    5.8302    0.0000 C   0  0  0  0  0  0  0  0  0  0  0  0
    3.7729   -4.4642    0.0000 C   0  0  2  0  0  0  0  0  0  0  0  0
    2.9069   -4.9642    0.0000 C   0  0  0  0  0  0  0  0  0  0  0  0
    4.6390   -4.9642    0.0000 C   0  0  0  0  0  0  0  0  0  0  0  0
    5.7845    1.3045    0.0000 H   0  0  0  0  0  0  0  0  0  0  0  0
    5.7845    2.1814    0.0000 H   0  0  0  0  0  0  0  0  0  0  0  0
    3.4934    2.1814    0.0000 H   0  0  0  0  0  0  0  0  0  0  0  0
    3.4934    1.3045    0.0000 H   0  0  0  0  0  0  0  0  0  0  0  0
    4.4397    3.5128    0.0000 H   0  0  0  0  0  0  0  0  0  0  0  0
    3.6698    3.7191    0.0000 H   0  0  0  0  0  0  0  0  0  0  0  0
    6.6152    2.4483    0.0000 H   0  0  0  0  0  0  0  0  0  0  0  0
    6.0419   -0.1542    0.0000 H   0  0  0  0  0  0  0  0  0  0  0  0
    6.1776    5.2112    0.0000 H   0  0  0  0  0  0  0  0  0  0  0  0
    3.2360   -1.7742    0.0000 H   0  0  0  0  0  0  0  0  0  0  0  0
    9.9260    3.5136    0.0000 H   0  0  0  0  0  0  0  0  0  0  0  0
    7.7137    2.4504    0.0000 H   0  0  0  0  0  0  0  0  0  0  0  0
    8.2291    1.7410    0.0000 H   0  0  0  0  0  0  0  0  0  0  0  0
    8.9385    2.2564    0.0000 H   0  0  0  0  0  0  0  0  0  0  0  0
    8.3279    6.1117    0.0000 H   0  0  0  0  0  0  0  0  0  0  0  0
    7.4940    6.3826    0.0000 H   0  0  0  0  0  0  0  0  0  0  0  0
    7.2230    5.5487    0.0000 H   0  0  0  0  0  0  0  0  0  0  0  0
    3.2360   -3.1542    0.0000 H   0  0  0  0  0  0  0  0  0  0  0  0
    4.3099   -4.1542    0.0000 H   0  0  0  0  0  0  0  0  0  0  0  0
    4.3290   -5.5011    0.0000 H   0  0  0  0  0  0  0  0  0  0  0  0
    5.1759   -5.2742    0.0000 H   0  0  0  0  0  0  0  0  0  0  0  0
    4.9490   -4.4272    0.0000 H   0  0  0  0  0  0  0  0  0  0  0  0
  1 22  1  0  0  0  0
  2 26  1  0  0  0  0
  3 35  1  0  0  0  0
  4 35  1  0  0  0  0
  5 35  1  0  0  0  0
  6 31  2  0  0  0  0
  7 15  1  0  0  0  0
  7 16  1  0  0  0  0
  7 18  1  0  0  0  0
  8  9  1  0  0  0  0
  8 14  1  0  0  0  0
  8 19  1  0  0  0  0
  9 24  2  0  0  0  0
 10 21  3  0  0  0  0
 11 12  1  0  0  0  0
 11 29  1  0  0  0  0
 11 47  1  0  0  0  0
 12 30  2  0  0  0  0
 13 31  1  0  0  0  0
 34 13  1  1  0  0  0
 13 54  1  0  0  0  0
 14 15  1  0  0  0  0
 14 16  1  0  0  0  0
 14 17  1  0  0  0  0
 15 37  1  0  0  0  0
 15 38  1  0  0  0  0
 16 39  1  0  0  0  0
 16 40  1  0  0  0  0
 17 21  1  0  0  0  0
 17 41  1  0  0  0  0
 17 42  1  0  0  0  0
 18 22  2  0  0  0  0
 18 23  1  0  0  0  0
 19 20  2  0  0  0  0
 19 43  1  0  0  0  0
 20 24  1  0  0  0  0
 20 25  1  0  0  0  0
 22 27  1  0  0  0  0
 23 26  2  0  0  0  0
 23 44  1  0  0  0  0
 24 45  1  0  0  0  0
 25 29  2  0  0  0  0
 25 30  1  0  0  0  0
 26 28  1  0  0  0  0
 27 28  2  0  0  0  0
 27 46  1  0  0  0  0
 28 31  1  0  0  0  0
 29 32  1  0  0  0  0
 30 33  1  0  0  0  0
 32 48  1  0  0  0  0
 32 49  1  0  0  0  0
 32 50  1  0  0  0  0
 33 51  1  0  0  0  0
 33 52  1  0  0  0  0
 33 53  1  0  0  0  0
 34 35  1  0  0  0  0
 34 36  1  0  0  0  0
 34 55  1  0  0  0  0
 36 56  1  0  0  0  0
 36 57  1  0  0  0  0
 36 58  1  0  0  0  0
M  END
> <PUBCHEM_COMPOUND_CID>
86280672

> <PUBCHEM_COMPOUND_CANONICALIZED>
1

> <PUBCHEM_CACTVS_COMPLEXITY>
860

> <PUBCHEM_CACTVS_HBOND_ACCEPTOR>
10

> <PUBCHEM_CACTVS_HBOND_DONOR>
2

> <PUBCHEM_CACTVS_ROTATABLE_BOND>
6

> <PUBCHEM_CACTVS_SUBSKEYS>
AAADceB7ocAAAAAAAAAAAAAAAABYAWLAAAAwAAAAAAAAAAAB8AAAHwAYAAAADKjBnhw+wJPrAAC6BzV3VACSBAA1ggAQuaE4ZNgI4LLA1dGUpQhgngDIyY8YiQCeiAAAAAAAAAAQAAAAAAAAAAAAAAAAAA==

> <PUBCHEM_IUPAC_OPENEYE_NAME>
4-[3-(cyanomethyl)-3-[4-(3,5-dimethyl-1H-pyrazol-4-yl)pyrazol-1-yl]azetidin-1-yl]-2,5-difluoro-N-[(1S)-2,2,2-trifluoro-1-methyl-ethyl]benzamide

> <PUBCHEM_IUPAC_CAS_NAME>
4-[3-(cyanomethyl)-3-[4-(3,5-dimethyl-1H-pyrazol-4-yl)-1-pyrazolyl]-1-azetidinyl]-2,5-difluoro-N-[(2S)-1,1,1-trifluoropropan-2-yl]benzamide

> <PUBCHEM_IUPAC_NAME_MARKUP>
4-[3-(cyanomethyl)-3-[4-(3,5-dimethyl-1<I>H</I>-pyrazol-4-yl)pyrazol-1-yl]azetidin-1-yl]-2,5-difluoro-<I>N</I>-[(2<I>S</I>)-1,1,1-trifluoropropan-2-yl]benzamide

> <PUBCHEM_IUPAC_NAME>
4-[3-(cyanomethyl)-3-[4-(3,5-dimethyl-1H-pyrazol-4-yl)pyrazol-1-yl]azetidin-1-yl]-2,5-difluoro-N-[(2S)-1,1,1-trifluoropropan-2-yl]benzamide

> <PUBCHEM_IUPAC_SYSTEMATIC_NAME>
4-[3-(cyanomethyl)-3-[4-(3,5-dimethyl-1H-pyrazol-4-yl)pyrazol-1-yl]azetidin-1-yl]-2,5-bis(fluoranyl)-N-[(2S)-1,1,1-tris(fluoranyl)propan-2-yl]benzamide

> <PUBCHEM_IUPAC_TRADITIONAL_NAME>
4-[3-(cyanomethyl)-3-[4-(3,5-dimethyl-1H-pyrazol-4-yl)pyrazol-1-yl]azetidin-1-yl]-2,5-difluoro-N-[(1S)-2,2,2-trifluoro-1-methyl-ethyl]benzamide

> <PUBCHEM_IUPAC_INCHI>
InChI=1S/C23H22F5N7O/c1-12-20(13(2)33-32-12)15-8-30-35(9-15)22(4-5-29)10-34(11-22)19-7-17(24)16(6-18(19)25)21(36)31-14(3)23(26,27)28/h6-9,14H,4,10-11H2,1-3H3,(H,31,36)(H,32,33)/t14-/m0/s1

> <PUBCHEM_IUPAC_INCHIKEY>
MSGYSFWCPOBHEV-AWEZNQCLSA-N

> <PUBCHEM_XLOGP3_AA>
3.1

> <PUBCHEM_EXACT_MASS>
507.18059916

> <PUBCHEM_MOLECULAR_FORMULA>
C23H22F5N7O

> <PUBCHEM_MOLECULAR_WEIGHT>
507.5

> <PUBCHEM_OPENEYE_CAN_SMILES>
CC1=C(C(=NN1)C)C2=CN(N=C2)C3(CN(C3)C4=C(C=C(C(=C4)F)C(=O)NC(C)C(F)(F)F)F)CC#N

> <PUBCHEM_OPENEYE_ISO_SMILES>
CC1=C(C(=NN1)C)C2=CN(N=C2)C3(CN(C3)C4=C(C=C(C(=C4)F)C(=O)N[C@@H](C)C(F)(F)F)F)CC#N

> <PUBCHEM_CACTVS_TPSA>
103

> <PUBCHEM_MONOISOTOPIC_WEIGHT>
507.18059916

> <PUBCHEM_TOTAL_CHARGE>
0

> <PUBCHEM_HEAVY_ATOM_COUNT>
36

> <PUBCHEM_ATOM_DEF_STEREO_COUNT>
1

> <PUBCHEM_ATOM_UDEF_STEREO_COUNT>
0

> <PUBCHEM_BOND_DEF_STEREO_COUNT>
0

> <PUBCHEM_BOND_UDEF_STEREO_COUNT>
0

> <PUBCHEM_ISOTOPIC_ATOM_COUNT>
0

> <PUBCHEM_COMPONENT_COUNT>
1

> <PUBCHEM_CACTVS_TAUTO_COUNT>
-1

> <PUBCHEM_COORDINATE_TYPE>
1
5
255

> <PUBCHEM_BONDANNOTATIONS>
11  12  8
11  29  8
12  30  8
34  13  5
18  22  8
18  23  8
19  20  8
20  24  8
22  27  8
23  26  8
25  29  8
25  30  8
26  28  8
27  28  8
8  19  8
8  9  8
9  24  8

$$$$
130339268
  -OEChem-11282412102D

 46 50  0     0  0  0  0  0  0999 V2000
    5.9600    1.1777    0.0000 N   0  0  0  0  0  0  0  0  0  0  0  0
    6.9600    1.1777    0.0000 N   0  0  0  0  0  0  0  0  0  0  0  0
    2.0000    2.5208    0.0000 N   0  0  0  0  0  0  0  0  0  0  0  0
    5.5939   -1.8611    0.0000 N   0  0  0  0  0  0  0  0  0  0  0  0
    5.9721    4.5636    0.0000 N   0  0  0  0  0  0  0  0  0  0  0  0
    7.3260   -2.8611    0.0000 N   0  0  0  0  0  0  0  0  0  0  0  0
    8.2722   -3.1659    0.0000 N   0  0  0  0  0  0  0  0  0  0  0  0
    3.1452   -3.6975    0.0000 N   0  0  0  0  0  0  0  0  0  0  0  0
    3.6452   -4.5636    0.0000 N   0  0  0  0  0  0  0  0  0  0  0  0
    5.3722    1.9867    0.0000 C   0  0  0  0  0  0  0  0  0  0  0  0
    4.7844    2.7958    0.0000 C   0  0  0  0  0  0  0  0  0  0  0  0
    4.5632    1.3990    0.0000 C   0  0  0  0  0  0  0  0  0  0  0  0
    3.9754    2.2080    0.0000 C   0  0  0  0  0  0  0  0  0  0  0  0
    6.1812    2.5745    0.0000 C   0  0  0  0  0  0  0  0  0  0  0  0
    5.6510    0.2267    0.0000 C   0  0  0  0  0  0  0  0  0  0  0  0
    2.9877    2.3644    0.0000 C   0  0  0  0  0  0  0  0  0  0  0  0
    6.4600   -0.3611    0.0000 C   0  0  0  0  0  0  0  0  0  0  0  0
    6.0767    3.5690    0.0000 C   0  0  0  0  0  0  0  0  0  0  0  0
    7.2690    0.2267    0.0000 C   0  0  0  0  0  0  0  0  0  0  0  0
    6.4600   -1.3611    0.0000 C   0  0  0  0  0  0  0  0  0  0  0  0
    7.3260   -1.8611    0.0000 C   0  0  0  0  0  0  0  0  0  0  0  0
    5.5939   -2.8611    0.0000 C   0  0  0  0  0  0  0  0  0  0  0  0
    8.2722   -1.5564    0.0000 C   0  0  0  0  0  0  0  0  0  0  0  0
    6.4600   -3.3611    0.0000 C   0  0  0  0  0  0  0  0  0  0  0  0
    4.7279   -3.3611    0.0000 C   0  0  0  0  0  0  0  0  0  0  0  0
    8.8558   -2.3611    0.0000 C   0  0  0  0  0  0  0  0  0  0  0  0
    3.8144   -2.9544    0.0000 C   0  0  0  0  0  0  0  0  0  0  0  0
    4.6234   -4.3556    0.0000 C   0  0  0  0  0  0  0  0  0  0  0  0
    2.1507   -3.5930    0.0000 C   0  0  0  0  0  0  0  0  0  0  0  0
    5.2860    3.1602    0.0000 H   0  0  0  0  0  0  0  0  0  0  0  0
    4.4200    3.2973    0.0000 H   0  0  0  0  0  0  0  0  0  0  0  0
    4.0616    1.0345    0.0000 H   0  0  0  0  0  0  0  0  0  0  0  0
    4.9276    0.8974    0.0000 H   0  0  0  0  0  0  0  0  0  0  0  0
    3.8306    2.8108    0.0000 H   0  0  0  0  0  0  0  0  0  0  0  0
    6.4530    2.0173    0.0000 H   0  0  0  0  0  0  0  0  0  0  0  0
    6.7772    2.7454    0.0000 H   0  0  0  0  0  0  0  0  0  0  0  0
    5.0613    0.0351    0.0000 H   0  0  0  0  0  0  0  0  0  0  0  0
    7.8586    0.0351    0.0000 H   0  0  0  0  0  0  0  0  0  0  0  0
    8.4648   -0.9671    0.0000 H   0  0  0  0  0  0  0  0  0  0  0  0
    6.4600   -3.9811    0.0000 H   0  0  0  0  0  0  0  0  0  0  0  0
    9.4758   -2.3611    0.0000 H   0  0  0  0  0  0  0  0  0  0  0  0
    3.6855   -2.3479    0.0000 H   0  0  0  0  0  0  0  0  0  0  0  0
    5.0841   -4.7705    0.0000 H   0  0  0  0  0  0  0  0  0  0  0  0
    2.2155   -2.9764    0.0000 H   0  0  0  0  0  0  0  0  0  0  0  0
    1.5341   -3.5282    0.0000 H   0  0  0  0  0  0  0  0  0  0  0  0
    2.0859   -4.2096    0.0000 H   0  0  0  0  0  0  0  0  0  0  0  0
  1  2  1  0  0  0  0
  1 10  1  0  0  0  0
  1 15  1  0  0  0  0
  2 19  2  0  0  0  0
  3 16  3  0  0  0  0
  4 20  2  0  0  0  0
  4 22  1  0  0  0  0
  5 18  3  0  0  0  0
  6  7  1  0  0  0  0
  6 21  1  0  0  0  0
  6 24  1  0  0  0  0
  7 26  2  0  0  0  0
  8  9  1  0  0  0  0
  8 27  1  0  0  0  0
  8 29  1  0  0  0  0
  9 28  2  0  0  0  0
 10 11  1  0  0  0  0
 10 12  1  0  0  0  0
 10 14  1  1  0  0  0
 11 13  1  0  0  0  0
 11 30  1  0  0  0  0
 11 31  1  0  0  0  0
 12 13  1  0  0  0  0
 12 32  1  0  0  0  0
 12 33  1  0  0  0  0
 13 16  1  6  0  0  0
 13 34  1  0  0  0  0
 14 18  1  0  0  0  0
 14 35  1  0  0  0  0
 14 36  1  0  0  0  0
 15 17  2  0  0  0  0
 15 37  1  0  0  0  0
 17 19  1  0  0  0  0
 17 20  1  0  0  0  0
 19 38  1  0  0  0  0
 20 21  1  0  0  0  0
 21 23  2  0  0  0  0
 22 24  2  0  0  0  0
 22 25  1  0  0  0  0
 23 26  1  0  0  0  0
 23 39  1  0  0  0  0
 24 40  1  0  0  0  0
 25 27  2  0  0  0  0
 25 28  1  0  0  0  0
 26 41  1  0  0  0  0
 27 42  1  0  0  0  0
 28 43  1  0  0  0  0
 29 44  1  0  0  0  0
 29 45  1  0  0  0  0
 29 46  1  0  0  0  0
M  END
> <PUBCHEM_COMPOUND_CID>
130339268

> <PUBCHEM_COMPOUND_CANONICALIZED>
1

> <PUBCHEM_CACTVS_COMPLEXITY>
716

> <PUBCHEM_CACTVS_HBOND_ACCEPTOR>
6

> <PUBCHEM_CACTVS_HBOND_DONOR>
0

> <PUBCHEM_CACTVS_ROTATABLE_BOND>
4

> <PUBCHEM_CACTVS_SUBSKEYS>
AAADceB7wAAAAAAAAAAAAAAAAABgAWLFgAAsAAAAAAAAAFgB/gAAHAAIAAAADYjBHgQ+wLIIEACyBzRnRACShCQxkiAY2CA4dJgI4OLA0dGUpAhgiADIyA8QAAAOAAAAAAAAAAAAAAAAAAAAAAAAAAAAAA==

> <PUBCHEM_IUPAC_OPENEYE_NAME>
3-(cyanomethyl)-3-[4-[6-(1-methylpyrazol-4-yl)pyrazolo[1,5-a]pyrazin-4-yl]pyrazol-1-yl]cyclobutanecarbonitrile

> <PUBCHEM_IUPAC_CAS_NAME>
3-(cyanomethyl)-3-[4-[6-(1-methyl-4-pyrazolyl)-4-pyrazolo[1,5-a]pyrazinyl]-1-pyrazolyl]-1-cyclobutanecarbonitrile

> <PUBCHEM_IUPAC_NAME_MARKUP>
3-(cyanomethyl)-3-[4-[6-(1-methylpyrazol-4-yl)pyrazolo[1,5-a]pyrazin-4-yl]pyrazol-1-yl]cyclobutane-1-carbonitrile

> <PUBCHEM_IUPAC_NAME>
3-(cyanomethyl)-3-[4-[6-(1-methylpyrazol-4-yl)pyrazolo[1,5-a]pyrazin-4-yl]pyrazol-1-yl]cyclobutane-1-carbonitrile

> <PUBCHEM_IUPAC_SYSTEMATIC_NAME>
3-(cyanomethyl)-3-[4-[6-(1-methylpyrazol-4-yl)pyrazolo[1,5-a]pyrazin-4-yl]pyrazol-1-yl]cyclobutane-1-carbonitrile

> <PUBCHEM_IUPAC_TRADITIONAL_NAME>
3-(cyanomethyl)-3-[4-[6-(1-methylpyrazol-4-yl)pyrazolo[1,5-a]pyrazin-4-yl]pyrazol-1-yl]cyclobutanecarbonitrile

> <PUBCHEM_IUPAC_INCHI>
InChI=1S/C20H17N9/c1-27-11-15(9-24-27)17-13-28-18(2-5-23-28)19(26-17)16-10-25-29(12-16)20(3-4-21)6-14(7-20)8-22/h2,5,9-14H,3,6-7H2,1H3

> <PUBCHEM_IUPAC_INCHIKEY>
XPLZTJWZDBFWDE-UHFFFAOYSA-N

> <PUBCHEM_XLOGP3_AA>
-0.4

> <PUBCHEM_EXACT_MASS>
383.16069158

> <PUBCHEM_MOLECULAR_FORMULA>
C20H17N9

> <PUBCHEM_MOLECULAR_WEIGHT>
383.4

> <PUBCHEM_OPENEYE_CAN_SMILES>
CN1C=C(C=N1)C2=CN3C(=CC=N3)C(=N2)C4=CN(N=C4)C5(CC(C5)C#N)CC#N

> <PUBCHEM_OPENEYE_ISO_SMILES>
CN1C=C(C=N1)C2=CN3C(=CC=N3)C(=N2)C4=CN(N=C4)C5(CC(C5)C#N)CC#N

> <PUBCHEM_CACTVS_TPSA>
113

> <PUBCHEM_MONOISOTOPIC_WEIGHT>
383.16069158

> <PUBCHEM_TOTAL_CHARGE>
0

> <PUBCHEM_HEAVY_ATOM_COUNT>
29

> <PUBCHEM_ATOM_DEF_STEREO_COUNT>
0

> <PUBCHEM_ATOM_UDEF_STEREO_COUNT>
0

> <PUBCHEM_BOND_DEF_STEREO_COUNT>
0

> <PUBCHEM_BOND_UDEF_STEREO_COUNT>
0

> <PUBCHEM_ISOTOPIC_ATOM_COUNT>
0

> <PUBCHEM_COMPONENT_COUNT>
1

> <PUBCHEM_CACTVS_TAUTO_COUNT>
-1

> <PUBCHEM_COORDINATE_TYPE>
1
5
255

> <PUBCHEM_BONDANNOTATIONS>
1  15  8
1  2  8
10  14  5
13  16  6
15  17  8
17  19  8
2  19  8
20  21  8
21  23  8
22  24  8
23  26  8
25  27  8
25  28  8
4  20  8
4  22  8
6  21  8
6  24  8
6  7  8
7  26  8
8  27  8
8  9  8
9  28  8

$$$$
154572727
  -OEChem-11282412102D

 49 51  0     1  0  0  0  0  0999 V2000
    9.3130    4.1470    0.0000 P   0  0  0  0  0  0  0  0  0  0  0  0
   10.1790    4.6470    0.0000 O   0  0  0  0  0  0  0  0  0  0  0  0
    8.4470    3.6470    0.0000 O   0  0  0  0  0  0  0  0  0  0  0  0
    8.8130    5.0131    0.0000 O   0  0  0  0  0  0  0  0  0  0  0  0
    9.8130    3.2810    0.0000 O   0  0  0  0  0  0  0  0  0  0  0  0
    2.3958    4.9329    0.0000 N   0  0  0  0  0  0  0  0  0  0  0  0
    3.3958    4.9329    0.0000 N   0  0  0  0  0  0  0  0  0  0  0  0
    0.0000    3.8103    0.0000 N   0  0  0  0  0  0  0  0  0  0  0  0
    2.0298    1.8941    0.0000 N   0  0  0  0  0  0  0  0  0  0  0  0
    4.7080    0.5893    0.0000 N   0  0  0  0  0  0  0  0  0  0  0  0
    2.8958    0.3941    0.0000 N   0  0  0  0  0  0  0  0  0  0  0  0
    2.2147    6.6555    0.0000 C   0  0  0  0  0  0  0  0  0  0  0  0
    3.1929    6.8634    0.0000 C   0  0  0  0  0  0  0  0  0  0  0  0
    1.7147    7.5215    0.0000 C   0  0  0  0  0  0  0  0  0  0  0  0
    1.8080    5.7419    0.0000 C   0  0  1  0  0  0  0  0  0  0  0  0
    3.2974    7.8579    0.0000 C   0  0  0  0  0  0  0  0  0  0  0  0
    2.3839    8.2646    0.0000 C   0  0  0  0  0  0  0  0  0  0  0  0
    0.8135    5.6374    0.0000 C   0  0  0  0  0  0  0  0  0  0  0  0
    2.0868    3.9818    0.0000 C   0  0  0  0  0  0  0  0  0  0  0  0
    2.8958    3.3941    0.0000 C   0  0  0  0  0  0  0  0  0  0  0  0
    0.4067    4.7238    0.0000 C   0  0  0  0  0  0  0  0  0  0  0  0
    3.7048    3.9818    0.0000 C   0  0  0  0  0  0  0  0  0  0  0  0
    2.8958    2.3941    0.0000 C   0  0  0  0  0  0  0  0  0  0  0  0
    3.7618    1.8941    0.0000 C   0  0  0  0  0  0  0  0  0  0  0  0
    3.7618    0.8941    0.0000 C   0  0  0  0  0  0  0  0  0  0  0  0
    4.7080    2.1988    0.0000 C   0  0  0  0  0  0  0  0  0  0  0  0
    5.2916    1.3941    0.0000 C   0  0  0  0  0  0  0  0  0  0  0  0
    2.0298    0.8941    0.0000 C   0  0  0  0  0  0  0  0  0  0  0  0
    1.5956    6.6230    0.0000 H   0  0  0  0  0  0  0  0  0  0  0  0
    3.8095    6.7986    0.0000 H   1  0  0  0  0  0  0  0  0  0  0  0
    3.3218    6.2569    0.0000 H   1  0  0  0  0  0  0  0  0  0  0  0
    1.2540    7.9364    0.0000 H   1  0  0  0  0  0  0  0  0  0  0  0
    1.1778    7.2115    0.0000 H   1  0  0  0  0  0  0  0  0  0  0  0
    1.5558    5.1755    0.0000 H   0  0  0  0  0  0  0  0  0  0  0  0
    3.5496    8.4243    0.0000 H   1  0  0  0  0  0  0  0  0  0  0  0
    3.9140    7.7931    0.0000 H   1  0  0  0  0  0  0  0  0  0  0  0
    2.6360    8.8310    0.0000 H   1  0  0  0  0  0  0  0  0  0  0  0
    1.9231    8.6795    0.0000 H   1  0  0  0  0  0  0  0  0  0  0  0
    0.8567    6.2559    0.0000 H   0  0  0  0  0  0  0  0  0  0  0  0
    0.2119    5.7874    0.0000 H   0  0  0  0  0  0  0  0  0  0  0  0
    1.4971    3.7902    0.0000 H   0  0  0  0  0  0  0  0  0  0  0  0
    4.2944    3.7902    0.0000 H   0  0  0  0  0  0  0  0  0  0  0  0
    4.9006    2.7881    0.0000 H   0  0  0  0  0  0  0  0  0  0  0  0
    4.9006    0.0000    0.0000 H   0  0  0  0  0  0  0  0  0  0  0  0
    5.9116    1.3941    0.0000 H   0  0  0  0  0  0  0  0  0  0  0  0
    1.4928    0.5841    0.0000 H   0  0  0  0  0  0  0  0  0  0  0  0
   10.7160    4.3370    0.0000 H   0  0  0  0  0  0  0  0  0  0  0  0
    7.9101    3.9570    0.0000 H   0  0  0  0  0  0  0  0  0  0  0  0
    9.1230    5.5500    0.0000 H   0  0  0  0  0  0  0  0  0  0  0  0
  1  2  1  0  0  0  0
  1  3  1  0  0  0  0
  1  4  1  0  0  0  0
  1  5  2  0  0  0  0
  2 47  1  0  0  0  0
  3 48  1  0  0  0  0
  4 49  1  0  0  0  0
  6  7  1  0  0  0  0
  6 15  1  0  0  0  0
  6 19  1  0  0  0  0
  7 22  2  0  0  0  0
  8 21  3  0  0  0  0
  9 23  1  0  0  0  0
  9 28  2  0  0  0  0
 10 25  1  0  0  0  0
 10 27  1  0  0  0  0
 10 44  1  0  0  0  0
 11 25  2  0  0  0  0
 11 28  1  0  0  0  0
 12 13  1  0  0  0  0
 12 14  1  0  0  0  0
 12 15  1  0  0  0  0
 12 29  1  0  0  0  0
 13 16  1  0  0  0  0
 13 30  1  0  0  0  0
 13 31  1  0  0  0  0
 14 17  1  0  0  0  0
 14 32  1  0  0  0  0
 14 33  1  0  0  0  0
 15 18  1  6  0  0  0
 15 34  1  0  0  0  0
 16 17  1  0  0  0  0
 16 35  1  0  0  0  0
 16 36  1  0  0  0  0
 17 37  1  0  0  0  0
 17 38  1  0  0  0  0
 18 21  1  0  0  0  0
 18 39  1  0  0  0  0
 18 40  1  0  0  0  0
 19 20  2  0  0  0  0
 19 41  1  0  0  0  0
 20 22  1  0  0  0  0
 20 23  1  0  0  0  0
 22 42  1  0  0  0  0
 23 24  2  0  0  0  0
 24 25  1  0  0  0  0
 24 26  1  0  0  0  0
 26 27  2  0  0  0  0
 26 43  1  0  0  0  0
 27 45  1  0  0  0  0
 28 46  1  0  0  0  0
M  ISO  8  30   2  31   2  32   2  33   2  35   2  36   2  37   2  38   2
M  END
> <PUBCHEM_COMPOUND_CID>
154572727

> <PUBCHEM_COMPOUND_CANONICALIZED>
1

> <PUBCHEM_CACTVS_COMPLEXITY>
503

> <PUBCHEM_CACTVS_HBOND_ACCEPTOR>
8

> <PUBCHEM_CACTVS_HBOND_DONOR>
4

> <PUBCHEM_CACTVS_ROTATABLE_BOND>
4

> <PUBCHEM_CACTVS_SUBSKEYS>
AAADceB7uAIAAAAAAAAAAAAAAAAAAeLEAAAsAAAAAAAAAFgB/gAAHAAYCCAADSjBHwQ9sN7JkBCyRzZnZICShCmxgqAZ2aA4ZJiIqOLA2dGEpAhomALIyC8QgIAOAAAAAAAAAAAAAAAAAAAAAAAAAAAAAA==

> <PUBCHEM_IUPAC_OPENEYE_NAME>
(3R)-3-(2,2,3,3,4,4,5,5-octadeuteriocyclopentyl)-3-[4-(7H-pyrrolo[2,3-d]pyrimidin-4-yl)pyrazol-1-yl]propanenitrile;phosphoric acid

> <PUBCHEM_IUPAC_CAS_NAME>
(3R)-3-(2,2,3,3,4,4,5,5-octadeuteriocyclopentyl)-3-[4-(7H-pyrrolo[2,3-d]pyrimidin-4-yl)-1-pyrazolyl]propanenitrile;phosphoric acid

> <PUBCHEM_IUPAC_NAME_MARKUP>
(3<I>R</I>)-3-(2,2,3,3,4,4,5,5-octadeuteriocyclopentyl)-3-[4-(7<I>H</I>-pyrrolo[2,3-d]pyrimidin-4-yl)pyrazol-1-yl]propanenitrile;phosphoric acid

> <PUBCHEM_IUPAC_NAME>
(3R)-3-(2,2,3,3,4,4,5,5-octadeuteriocyclopentyl)-3-[4-(7H-pyrrolo[2,3-d]pyrimidin-4-yl)pyrazol-1-yl]propanenitrile;phosphoric acid

> <PUBCHEM_IUPAC_SYSTEMATIC_NAME>
(3R)-3-(2,2,3,3,4,4,5,5-octadeuteriocyclopentyl)-3-[4-(7H-pyrrolo[2,3-d]pyrimidin-4-yl)pyrazol-1-yl]propanenitrile;phosphoric acid

> <PUBCHEM_IUPAC_TRADITIONAL_NAME>
(3R)-3-(2,2,3,3,4,4,5,5-octadeuteriocyclopentyl)-3-[4-(7H-pyrrolo[2,3-d]pyrimidin-4-yl)pyrazol-1-yl]propionitrile;phosphoric acid

> <PUBCHEM_IUPAC_INCHI>
InChI=1S/C17H18N6.H3O4P/c18-7-5-15(12-3-1-2-4-12)23-10-13(9-22-23)16-14-6-8-19-17(14)21-11-20-16;1-5(2,3)4/h6,8-12,15H,1-5H2,(H,19,20,21);(H3,1,2,3,4)/t15-;/m1./s1/i1D2,2D2,3D2,4D2;

> <PUBCHEM_IUPAC_INCHIKEY>
JFMWPOCYMYGEDM-NTVOUFPTSA-N

> <PUBCHEM_EXACT_MASS>
412.18640414

> <PUBCHEM_MOLECULAR_FORMULA>
C17H21N6O4P

> <PUBCHEM_MOLECULAR_WEIGHT>
412.4

> <PUBCHEM_OPENEYE_CAN_SMILES>
C1CCC(C1)C(CC#N)N2C=C(C=N2)C3=C4C=CNC4=NC=N3.OP(=O)(O)O

> <PUBCHEM_OPENEYE_ISO_SMILES>
[2H]C1(C(C(C(C1([2H])[2H])([2H])[2H])([2H])[2H])[C@@H](CC#N)N2C=C(C=N2)C3=C4C=CNC4=NC=N3)[2H].OP(=O)(O)O

> <PUBCHEM_CACTVS_TPSA>
161

> <PUBCHEM_MONOISOTOPIC_WEIGHT>
412.18640414

> <PUBCHEM_TOTAL_CHARGE>
0

> <PUBCHEM_HEAVY_ATOM_COUNT>
28

> <PUBCHEM_ATOM_DEF_STEREO_COUNT>
1

> <PUBCHEM_ATOM_UDEF_STEREO_COUNT>
0

> <PUBCHEM_BOND_DEF_STEREO_COUNT>
0

> <PUBCHEM_BOND_UDEF_STEREO_COUNT>
0

> <PUBCHEM_ISOTOPIC_ATOM_COUNT>
8

> <PUBCHEM_COMPONENT_COUNT>
2

> <PUBCHEM_CACTVS_TAUTO_COUNT>
-1

> <PUBCHEM_COORDINATE_TYPE>
1
5
255

> <PUBCHEM_BONDANNOTATIONS>
10  25  8
10  27  8
11  25  8
11  28  8
15  18  6
19  20  8
20  22  8
23  24  8
24  25  8
24  26  8
26  27  8
6  19  8
6  7  8
7  22  8
9  23  8
9  28  8

$$$$
10302451
  -OEChem-11282412102D

 70 75  0     0  0  0  0  0  0999 V2000
    8.9560   -1.7470    0.0000 Cl  0  0  0  0  0  0  0  0  0  0  0  0
    5.4641   -2.6923    0.0000 O   0  0  0  0  0  0  0  0  0  0  0  0
    2.8660   -4.1923    0.0000 O   0  0  0  0  0  0  0  0  0  0  0  0
    3.7320    0.3077    0.0000 O   0  0  0  0  0  0  0  0  0  0  0  0
    7.3164   -4.8953    0.0000 O   0  0  0  0  0  0  0  0  0  0  0  0
    8.7009   -5.7161    0.0000 O   0  0  0  0  0  0  0  0  0  0  0  0
    2.8660    2.8077    0.0000 N   0  0  0  0  0  0  0  0  0  0  0  0
    2.8660    4.8077    0.0000 N   0  0  0  0  0  0  0  0  0  0  0  0
    7.2125   -2.7269    0.0000 N   0  0  0  0  0  0  0  0  0  0  0  0
    7.2241    0.3424    0.0000 N   0  0  0  0  0  0  0  0  0  0  0  0
    8.1301   -1.2131    0.0000 N   0  0  0  0  0  0  0  0  0  0  0  0
    3.7320    3.3077    0.0000 C   0  0  0  0  0  0  0  0  0  0  0  0
    2.0000    3.3077    0.0000 C   0  0  0  0  0  0  0  0  0  0  0  0
    3.7320    4.3077    0.0000 C   0  0  0  0  0  0  0  0  0  0  0  0
    2.0000    4.3077    0.0000 C   0  0  0  0  0  0  0  0  0  0  0  0
    2.8660    1.8077    0.0000 C   0  0  0  0  0  0  0  0  0  0  0  0
    4.5981   -3.1923    0.0000 C   0  0  0  0  0  0  0  0  0  0  0  0
    4.5981   -4.1923    0.0000 C   0  0  0  0  0  0  0  0  0  0  0  0
    3.7320   -2.6923    0.0000 C   0  0  0  0  0  0  0  0  0  0  0  0
    3.7320    1.3077    0.0000 C   0  0  0  0  0  0  0  0  0  0  0  0
    2.8660    5.8077    0.0000 C   0  0  0  0  0  0  0  0  0  0  0  0
    3.7320   -4.6923    0.0000 C   0  0  0  0  0  0  0  0  0  0  0  0
    2.8660   -3.1923    0.0000 C   0  0  0  0  0  0  0  0  0  0  0  0
    5.4641   -1.6923    0.0000 C   0  0  0  0  0  0  0  0  0  0  0  0
    4.5981   -0.1923    0.0000 C   0  0  0  0  0  0  0  0  0  0  0  0
    6.3301   -1.1923    0.0000 C   0  0  0  0  0  0  0  0  0  0  0  0
    4.5981   -1.1923    0.0000 C   0  0  0  0  0  0  0  0  0  0  0  0
    6.3301   -0.1923    0.0000 C   0  0  0  0  0  0  0  0  0  0  0  0
    5.4641    0.3077    0.0000 C   0  0  0  0  0  0  0  0  0  0  0  0
    7.2241   -1.7269    0.0000 C   0  0  0  0  0  0  0  0  0  0  0  0
    8.0727   -3.2369    0.0000 C   0  0  0  0  0  0  0  0  0  0  0  0
    8.1301   -0.1715    0.0000 C   0  0  0  0  0  0  0  0  0  0  0  0
    8.0611   -4.2368    0.0000 C   0  0  0  0  0  0  0  0  0  0  0  0
    8.9213   -4.7468    0.0000 C   0  0  0  0  0  0  0  0  0  0  0  0
    8.9444   -2.7469    0.0000 C   0  0  0  0  0  0  0  0  0  0  0  0
    9.7931   -4.2568    0.0000 C   0  0  0  0  0  0  0  0  0  0  0  0
    9.8046   -3.2569    0.0000 C   0  0  0  0  0  0  0  0  0  0  0  0
    7.7110   -5.8077    0.0000 C   0  0  0  0  0  0  0  0  0  0  0  0
    3.9441    2.7251    0.0000 H   0  0  0  0  0  0  0  0  0  0  0  0
    4.3426    3.4154    0.0000 H   0  0  0  0  0  0  0  0  0  0  0  0
    1.3894    3.4154    0.0000 H   0  0  0  0  0  0  0  0  0  0  0  0
    1.7880    2.7251    0.0000 H   0  0  0  0  0  0  0  0  0  0  0  0
    4.3426    4.2001    0.0000 H   0  0  0  0  0  0  0  0  0  0  0  0
    3.9441    4.8903    0.0000 H   0  0  0  0  0  0  0  0  0  0  0  0
    1.7880    4.8903    0.0000 H   0  0  0  0  0  0  0  0  0  0  0  0
    1.3894    4.2001    0.0000 H   0  0  0  0  0  0  0  0  0  0  0  0
    2.2554    1.9154    0.0000 H   0  0  0  0  0  0  0  0  0  0  0  0
    2.6540    1.2251    0.0000 H   0  0  0  0  0  0  0  0  0  0  0  0
    4.5981   -2.5723    0.0000 H   0  0  0  0  0  0  0  0  0  0  0  0
    4.8101   -4.7749    0.0000 H   0  0  0  0  0  0  0  0  0  0  0  0
    5.2087   -4.0846    0.0000 H   0  0  0  0  0  0  0  0  0  0  0  0
    4.1306   -2.2173    0.0000 H   0  0  0  0  0  0  0  0  0  0  0  0
    3.3335   -2.2173    0.0000 H   0  0  0  0  0  0  0  0  0  0  0  0
    4.3426    1.2001    0.0000 H   0  0  0  0  0  0  0  0  0  0  0  0
    3.9441    1.8903    0.0000 H   0  0  0  0  0  0  0  0  0  0  0  0
    3.4860    5.8077    0.0000 H   0  0  0  0  0  0  0  0  0  0  0  0
    2.8660    6.4277    0.0000 H   0  0  0  0  0  0  0  0  0  0  0  0
    2.2460    5.8077    0.0000 H   0  0  0  0  0  0  0  0  0  0  0  0
    3.3335   -5.1672    0.0000 H   0  0  0  0  0  0  0  0  0  0  0  0
    4.1306   -5.1672    0.0000 H   0  0  0  0  0  0  0  0  0  0  0  0
    2.6540   -2.6097    0.0000 H   0  0  0  0  0  0  0  0  0  0  0  0
    2.2554   -3.2999    0.0000 H   0  0  0  0  0  0  0  0  0  0  0  0
    4.0611   -1.5023    0.0000 H   0  0  0  0  0  0  0  0  0  0  0  0
    5.4641    0.9277    0.0000 H   0  0  0  0  0  0  0  0  0  0  0  0
    6.6720   -3.0306    0.0000 H   0  0  0  0  0  0  0  0  0  0  0  0
    8.6659    0.1406    0.0000 H   0  0  0  0  0  0  0  0  0  0  0  0
   10.3264   -4.5730    0.0000 H   0  0  0  0  0  0  0  0  0  0  0  0
   10.3451   -2.9531    0.0000 H   0  0  0  0  0  0  0  0  0  0  0  0
    7.1193   -5.9926    0.0000 H   0  0  0  0  0  0  0  0  0  0  0  0
    7.8328   -6.4156    0.0000 H   0  0  0  0  0  0  0  0  0  0  0  0
  1 35  1  0  0  0  0
  2 17  1  0  0  0  0
  2 24  1  0  0  0  0
  3 22  1  0  0  0  0
  3 23  1  0  0  0  0
  4 20  1  0  0  0  0
  4 25  1  0  0  0  0
  5 33  1  0  0  0  0
  5 38  1  0  0  0  0
  6 34  1  0  0  0  0
  6 38  1  0  0  0  0
  7 12  1  0  0  0  0
  7 13  1  0  0  0  0
  7 16  1  0  0  0  0
  8 14  1  0  0  0  0
  8 15  1  0  0  0  0
  8 21  1  0  0  0  0
  9 30  1  0  0  0  0
  9 31  1  0  0  0  0
  9 65  1  0  0  0  0
 10 28  1  0  0  0  0
 10 32  2  0  0  0  0
 11 30  2  0  0  0  0
 11 32  1  0  0  0  0
 12 14  1  0  0  0  0
 12 39  1  0  0  0  0
 12 40  1  0  0  0  0
 13 15  1  0  0  0  0
 13 41  1  0  0  0  0
 13 42  1  0  0  0  0
 14 43  1  0  0  0  0
 14 44  1  0  0  0  0
 15 45  1  0  0  0  0
 15 46  1  0  0  0  0
 16 20  1  0  0  0  0
 16 47  1  0  0  0  0
 16 48  1  0  0  0  0
 17 18  1  0  0  0  0
 17 19  1  0  0  0  0
 17 49  1  0  0  0  0
 18 22  1  0  0  0  0
 18 50  1  0  0  0  0
 18 51  1  0  0  0  0
 19 23  1  0  0  0  0
 19 52  1  0  0  0  0
 19 53  1  0  0  0  0
 20 54  1  0  0  0  0
 20 55  1  0  0  0  0
 21 56  1  0  0  0  0
 21 57  1  0  0  0  0
 21 58  1  0  0  0  0
 22 59  1  0  0  0  0
 22 60  1  0  0  0  0
 23 61  1  0  0  0  0
 23 62  1  0  0  0  0
 24 26  1  0  0  0  0
 24 27  2  0  0  0  0
 25 27  1  0  0  0  0
 25 29  2  0  0  0  0
 26 28  2  0  0  0  0
 26 30  1  0  0  0  0
 27 63  1  0  0  0  0
 28 29  1  0  0  0  0
 29 64  1  0  0  0  0
 31 33  1  0  0  0  0
 31 35  2  0  0  0  0
 32 66  1  0  0  0  0
 33 34  2  0  0  0  0
 34 36  1  0  0  0  0
 35 37  1  0  0  0  0
 36 37  2  0  0  0  0
 36 67  1  0  0  0  0
 37 68  1  0  0  0  0
 38 69  1  0  0  0  0
 38 70  1  0  0  0  0
M  END
> <PUBCHEM_COMPOUND_CID>
10302451

> <PUBCHEM_COMPOUND_CANONICALIZED>
1

> <PUBCHEM_CACTVS_COMPLEXITY>
743

> <PUBCHEM_CACTVS_HBOND_ACCEPTOR>
10

> <PUBCHEM_CACTVS_HBOND_DONOR>
1

> <PUBCHEM_CACTVS_ROTATABLE_BOND>
8

> <PUBCHEM_CACTVS_SUBSKEYS>
AAADcfB7uAAEAAAAAAAAAAAAAAAAASAAAAA8eJECAAAAAEix9AAAHgIQAAAADB7hnic3/vfIFACgAyZjZACCiCkxJ6AJ2CA/7pifb2LF+9v3PCrvwB/e6CeQ8C8OICAACwAKUBBAQAAWABSgIAAAAAAAAA==

> <PUBCHEM_IUPAC_OPENEYE_NAME>
N-(5-chloro-1,3-benzodioxol-4-yl)-7-[2-(4-methylpiperazin-1-yl)ethoxy]-5-tetrahydropyran-4-yloxy-quinazolin-4-amine

> <PUBCHEM_IUPAC_CAS_NAME>
N-(5-chloro-1,3-benzodioxol-4-yl)-7-[2-(4-methyl-1-piperazinyl)ethoxy]-5-(4-oxanyloxy)-4-quinazolinamine

> <PUBCHEM_IUPAC_NAME_MARKUP>
<I>N</I>-(5-chloro-1,3-benzodioxol-4-yl)-7-[2-(4-methylpiperazin-1-yl)ethoxy]-5-(oxan-4-yloxy)quinazolin-4-amine

> <PUBCHEM_IUPAC_NAME>
N-(5-chloro-1,3-benzodioxol-4-yl)-7-[2-(4-methylpiperazin-1-yl)ethoxy]-5-(oxan-4-yloxy)quinazolin-4-amine

> <PUBCHEM_IUPAC_SYSTEMATIC_NAME>
N-(5-chloranyl-1,3-benzodioxol-4-yl)-7-[2-(4-methylpiperazin-1-yl)ethoxy]-5-(oxan-4-yloxy)quinazolin-4-amine

> <PUBCHEM_IUPAC_TRADITIONAL_NAME>
(5-chloro-1,3-benzodioxol-4-yl)-[7-[2-(4-methylpiperazino)ethoxy]-5-tetrahydropyran-4-yloxy-quinazolin-4-yl]amine

> <PUBCHEM_IUPAC_INCHI>
InChI=1S/C27H32ClN5O5/c1-32-6-8-33(9-7-32)10-13-35-19-14-21-24(23(15-19)38-18-4-11-34-12-5-18)27(30-16-29-21)31-25-20(28)2-3-22-26(25)37-17-36-22/h2-3,14-16,18H,4-13,17H2,1H3,(H,29,30,31)

> <PUBCHEM_IUPAC_INCHIKEY>
OUKYUETWWIPKQR-UHFFFAOYSA-N

> <PUBCHEM_XLOGP3_AA>
4.1

> <PUBCHEM_EXACT_MASS>
541.2091968

> <PUBCHEM_MOLECULAR_FORMULA>
C27H32ClN5O5

> <PUBCHEM_MOLECULAR_WEIGHT>
542.0

> <PUBCHEM_OPENEYE_CAN_SMILES>
CN1CCN(CC1)CCOC2=CC3=C(C(=C2)OC4CCOCC4)C(=NC=N3)NC5=C(C=CC6=C5OCO6)Cl

> <PUBCHEM_OPENEYE_ISO_SMILES>
CN1CCN(CC1)CCOC2=CC3=C(C(=C2)OC4CCOCC4)C(=NC=N3)NC5=C(C=CC6=C5OCO6)Cl

> <PUBCHEM_CACTVS_TPSA>
90.4

> <PUBCHEM_MONOISOTOPIC_WEIGHT>
541.2091968

> <PUBCHEM_TOTAL_CHARGE>
0

> <PUBCHEM_HEAVY_ATOM_COUNT>
38

> <PUBCHEM_ATOM_DEF_STEREO_COUNT>
0

> <PUBCHEM_ATOM_UDEF_STEREO_COUNT>
0

> <PUBCHEM_BOND_DEF_STEREO_COUNT>
0

> <PUBCHEM_BOND_UDEF_STEREO_COUNT>
0

> <PUBCHEM_ISOTOPIC_ATOM_COUNT>
0

> <PUBCHEM_COMPONENT_COUNT>
1

> <PUBCHEM_CACTVS_TAUTO_COUNT>
-1

> <PUBCHEM_COORDINATE_TYPE>
1
5
255

> <PUBCHEM_BONDANNOTATIONS>
10  28  8
10  32  8
11  30  8
11  32  8
24  26  8
24  27  8
25  27  8
25  29  8
26  28  8
26  30  8
28  29  8
31  33  8
31  35  8
33  34  8
34  36  8
35  37  8
36  37  8

$$$$
16006490
  -OEChem-11282412102D

 63 66  0     0  0  0  0  0  0999 V2000
   10.3312    7.4847    0.0000 Cl  0  0  0  0  0  0  0  0  0  0  0  0
    0.0000    9.1200    0.0000 F   0  0  0  0  0  0  0  0  0  0  0  0
    1.3660    8.7540    0.0000 F   0  0  0  0  0  0  0  0  0  0  0  0
    0.3660   10.4860    0.0000 F   0  0  0  0  0  0  0  0  0  0  0  0
    3.4641    8.1200    0.0000 O   0  0  0  0  0  0  0  0  0  0  0  0
    2.5981   12.6200    0.0000 N   0  0  0  0  0  0  0  0  0  0  0  0
    4.3301    9.6200    0.0000 N   0  0  0  0  0  0  0  0  0  0  0  0
    6.0622    5.6200    0.0000 N   0  0  0  0  0  0  0  0  0  0  0  0
    2.0981   14.1588    0.0000 N   0  0  0  0  0  0  0  0  0  0  0  0
    5.1962    4.1200    0.0000 N   0  0  0  0  0  0  0  0  0  0  0  0
    4.3301    5.6200    0.0000 N   0  0  0  0  0  0  0  0  0  0  0  0
    5.1962    1.1200    0.0000 N   0  0  0  0  0  0  0  0  0  0  0  0
    2.5981   11.6200    0.0000 C   0  0  0  0  0  0  0  0  0  0  0  0
    3.4641   10.1200    0.0000 C   0  0  0  0  0  0  0  0  0  0  0  0
    1.7320   10.1200    0.0000 C   0  0  0  0  0  0  0  0  0  0  0  0
    3.4641   11.1200    0.0000 C   0  0  0  0  0  0  0  0  0  0  0  0
    1.7320   11.1200    0.0000 C   0  0  0  0  0  0  0  0  0  0  0  0
    2.5981    9.6200    0.0000 C   0  0  0  0  0  0  0  0  0  0  0  0
    5.1962    8.1200    0.0000 C   0  0  0  0  0  0  0  0  0  0  0  0
    6.0622    6.6200    0.0000 C   0  0  0  0  0  0  0  0  0  0  0  0
    6.9282    7.1200    0.0000 C   0  0  0  0  0  0  0  0  0  0  0  0
    5.1962    7.1200    0.0000 C   0  0  0  0  0  0  0  0  0  0  0  0
    4.3301    8.6200    0.0000 C   0  0  0  0  0  0  0  0  0  0  0  0
    3.4071   13.2078    0.0000 C   0  0  0  0  0  0  0  0  0  0  0  0
    6.0622    8.6200    0.0000 C   0  0  0  0  0  0  0  0  0  0  0  0
    6.9282    8.1200    0.0000 C   0  0  0  0  0  0  0  0  0  0  0  0
    0.8660    9.6200    0.0000 C   0  0  0  0  0  0  0  0  0  0  0  0
    1.7891   13.2078    0.0000 C   0  0  0  0  0  0  0  0  0  0  0  0
    3.0981   14.1588    0.0000 C   0  0  0  0  0  0  0  0  0  0  0  0
    7.7942    6.6200    0.0000 C   0  0  0  0  0  0  0  0  0  0  0  0
    3.6859   14.9679    0.0000 C   0  0  0  0  0  0  0  0  0  0  0  0
    5.1962    5.1200    0.0000 C   0  0  0  0  0  0  0  0  0  0  0  0
    4.3301    3.6200    0.0000 C   0  0  0  0  0  0  0  0  0  0  0  0
    4.3301    2.6200    0.0000 C   0  0  0  0  0  0  0  0  0  0  0  0
    3.4641    4.1200    0.0000 C   0  0  0  0  0  0  0  0  0  0  0  0
    3.4641    5.1200    0.0000 C   0  0  0  0  0  0  0  0  0  0  0  0
    3.4641    2.1200    0.0000 C   0  0  0  0  0  0  0  0  0  0  0  0
    5.1962    2.1200    0.0000 C   0  0  0  0  0  0  0  0  0  0  0  0
    3.4641    1.1200    0.0000 C   0  0  0  0  0  0  0  0  0  0  0  0
    4.3301    0.6200    0.0000 C   0  0  0  0  0  0  0  0  0  0  0  0
    4.0010   11.4300    0.0000 H   0  0  0  0  0  0  0  0  0  0  0  0
    1.1951   11.4300    0.0000 H   0  0  0  0  0  0  0  0  0  0  0  0
    2.5981    9.0000    0.0000 H   0  0  0  0  0  0  0  0  0  0  0  0
    4.8671    9.9300    0.0000 H   0  0  0  0  0  0  0  0  0  0  0  0
    4.6592    6.8100    0.0000 H   0  0  0  0  0  0  0  0  0  0  0  0
    3.9968   13.0162    0.0000 H   0  0  0  0  0  0  0  0  0  0  0  0
    6.0622    9.2400    0.0000 H   0  0  0  0  0  0  0  0  0  0  0  0
    7.4651    8.4300    0.0000 H   0  0  0  0  0  0  0  0  0  0  0  0
    1.1994   13.0162    0.0000 H   0  0  0  0  0  0  0  0  0  0  0  0
    6.5991    5.3100    0.0000 H   0  0  0  0  0  0  0  0  0  0  0  0
    7.4842    6.0831    0.0000 H   0  0  0  0  0  0  0  0  0  0  0  0
    8.3312    6.3100    0.0000 H   0  0  0  0  0  0  0  0  0  0  0  0
    8.1042    7.1569    0.0000 H   0  0  0  0  0  0  0  0  0  0  0  0
    4.1874   14.6034    0.0000 H   0  0  0  0  0  0  0  0  0  0  0  0
    4.0503   15.4694    0.0000 H   0  0  0  0  0  0  0  0  0  0  0  0
    3.1843   15.3323    0.0000 H   0  0  0  0  0  0  0  0  0  0  0  0
    2.9272    3.8100    0.0000 H   0  0  0  0  0  0  0  0  0  0  0  0
    2.9272    5.4300    0.0000 H   0  0  0  0  0  0  0  0  0  0  0  0
    2.9272    2.4300    0.0000 H   0  0  0  0  0  0  0  0  0  0  0  0
    5.7331    2.4300    0.0000 H   0  0  0  0  0  0  0  0  0  0  0  0
    2.9272    0.8100    0.0000 H   0  0  0  0  0  0  0  0  0  0  0  0
    4.3301    0.0000    0.0000 H   0  0  0  0  0  0  0  0  0  0  0  0
   11.3312    7.4847    0.0000 H   0  0  0  0  0  0  0  0  0  0  0  0
  1 63  1  0  0  0  0
  2 27  1  0  0  0  0
  3 27  1  0  0  0  0
  4 27  1  0  0  0  0
  5 23  2  0  0  0  0
  6 13  1  0  0  0  0
  6 24  1  0  0  0  0
  6 28  1  0  0  0  0
  7 14  1  0  0  0  0
  7 23  1  0  0  0  0
  7 44  1  0  0  0  0
  8 20  1  0  0  0  0
  8 32  1  0  0  0  0
  8 50  1  0  0  0  0
  9 28  2  0  0  0  0
  9 29  1  0  0  0  0
 10 32  1  0  0  0  0
 10 33  2  0  0  0  0
 11 32  2  0  0  0  0
 11 36  1  0  0  0  0
 12 38  1  0  0  0  0
 12 40  2  0  0  0  0
 13 16  1  0  0  0  0
 13 17  2  0  0  0  0
 14 16  2  0  0  0  0
 14 18  1  0  0  0  0
 15 17  1  0  0  0  0
 15 18  2  0  0  0  0
 15 27  1  0  0  0  0
 16 41  1  0  0  0  0
 17 42  1  0  0  0  0
 18 43  1  0  0  0  0
 19 22  2  0  0  0  0
 19 23  1  0  0  0  0
 19 25  1  0  0  0  0
 20 21  2  0  0  0  0
 20 22  1  0  0  0  0
 21 26  1  0  0  0  0
 21 30  1  0  0  0  0
 22 45  1  0  0  0  0
 24 29  2  0  0  0  0
 24 46  1  0  0  0  0
 25 26  2  0  0  0  0
 25 47  1  0  0  0  0
 26 48  1  0  0  0  0
 28 49  1  0  0  0  0
 29 31  1  0  0  0  0
 30 51  1  0  0  0  0
 30 52  1  0  0  0  0
 30 53  1  0  0  0  0
 31 54  1  0  0  0  0
 31 55  1  0  0  0  0
 31 56  1  0  0  0  0
 33 34  1  0  0  0  0
 33 35  1  0  0  0  0
 34 37  1  0  0  0  0
 34 38  2  0  0  0  0
 35 36  2  0  0  0  0
 35 57  1  0  0  0  0
 36 58  1  0  0  0  0
 37 39  2  0  0  0  0
 37 59  1  0  0  0  0
 38 60  1  0  0  0  0
 39 40  1  0  0  0  0
 39 61  1  0  0  0  0
 40 62  1  0  0  0  0
M  END
> <PUBCHEM_COMPOUND_CID>
16006490

> <PUBCHEM_COMPOUND_CANONICALIZED>
1

> <PUBCHEM_CACTVS_COMPLEXITY>
817

> <PUBCHEM_CACTVS_HBOND_ACCEPTOR>
9

> <PUBCHEM_CACTVS_HBOND_DONOR>
3

> <PUBCHEM_CACTVS_ROTATABLE_BOND>
6

> <PUBCHEM_CACTVS_SUBSKEYS>
AAADceB7oYAEAAAAAAAAAAAAAAAAAWAAAAA8eIEAAAAAAAAB/AAAHwAQAAAADAjBnhQ/0JfMEACoAzV3dACCgC01EqAJ2CE4dNiIaPLA3dGUJQholALIyacciACOQAAAQAQCAACAAACACAQAAAAAAAAAAA==

> <PUBCHEM_IUPAC_OPENEYE_NAME>
4-methyl-N-[3-(4-methylimidazol-1-yl)-5-(trifluoromethyl)phenyl]-3-[[4-(3-pyridyl)pyrimidin-2-yl]amino]benzamide;hydrochloride

> <PUBCHEM_IUPAC_CAS_NAME>
4-methyl-N-[3-(4-methyl-1-imidazolyl)-5-(trifluoromethyl)phenyl]-3-[[4-(3-pyridinyl)-2-pyrimidinyl]amino]benzamide;hydrochloride

> <PUBCHEM_IUPAC_NAME_MARKUP>
4-methyl-<I>N</I>-[3-(4-methylimidazol-1-yl)-5-(trifluoromethyl)phenyl]-3-[(4-pyridin-3-ylpyrimidin-2-yl)amino]benzamide;hydrochloride

> <PUBCHEM_IUPAC_NAME>
4-methyl-N-[3-(4-methylimidazol-1-yl)-5-(trifluoromethyl)phenyl]-3-[(4-pyridin-3-ylpyrimidin-2-yl)amino]benzamide;hydrochloride

> <PUBCHEM_IUPAC_SYSTEMATIC_NAME>
4-methyl-N-[3-(4-methylimidazol-1-yl)-5-(trifluoromethyl)phenyl]-3-[(4-pyridin-3-ylpyrimidin-2-yl)amino]benzamide;hydrochloride

> <PUBCHEM_IUPAC_TRADITIONAL_NAME>
4-methyl-N-[3-(4-methylimidazol-1-yl)-5-(trifluoromethyl)phenyl]-3-[[4-(3-pyridyl)pyrimidin-2-yl]amino]benzamide;hydrochloride

> <PUBCHEM_IUPAC_INCHI>
InChI=1S/C28H22F3N7O.ClH/c1-17-5-6-19(10-25(17)37-27-33-9-7-24(36-27)20-4-3-8-32-14-20)26(39)35-22-11-21(28(29,30)31)12-23(13-22)38-15-18(2)34-16-38;/h3-16H,1-2H3,(H,35,39)(H,33,36,37);1H

> <PUBCHEM_IUPAC_INCHIKEY>
VTGGYCCJUPYZSX-UHFFFAOYSA-N

> <PUBCHEM_EXACT_MASS>
565.1604706

> <PUBCHEM_MOLECULAR_FORMULA>
C28H23ClF3N7O

> <PUBCHEM_MOLECULAR_WEIGHT>
566.0

> <PUBCHEM_OPENEYE_CAN_SMILES>
CC1=C(C=C(C=C1)C(=O)NC2=CC(=CC(=C2)C(F)(F)F)N3C=C(N=C3)C)NC4=NC=CC(=N4)C5=CN=CC=C5.Cl

> <PUBCHEM_OPENEYE_ISO_SMILES>
CC1=C(C=C(C=C1)C(=O)NC2=CC(=CC(=C2)C(F)(F)F)N3C=C(N=C3)C)NC4=NC=CC(=N4)C5=CN=CC=C5.Cl

> <PUBCHEM_CACTVS_TPSA>
97.6

> <PUBCHEM_MONOISOTOPIC_WEIGHT>
565.1604706

> <PUBCHEM_TOTAL_CHARGE>
0

> <PUBCHEM_HEAVY_ATOM_COUNT>
40

> <PUBCHEM_ATOM_DEF_STEREO_COUNT>
0

> <PUBCHEM_ATOM_UDEF_STEREO_COUNT>
0

> <PUBCHEM_BOND_DEF_STEREO_COUNT>
0

> <PUBCHEM_BOND_UDEF_STEREO_COUNT>
0

> <PUBCHEM_ISOTOPIC_ATOM_COUNT>
0

> <PUBCHEM_COMPONENT_COUNT>
2

> <PUBCHEM_CACTVS_TAUTO_COUNT>
-1

> <PUBCHEM_COORDINATE_TYPE>
1
5
255

> <PUBCHEM_BONDANNOTATIONS>
10  32  8
10  33  8
11  32  8
11  36  8
12  38  8
12  40  8
13  16  8
13  17  8
14  16  8
14  18  8
15  17  8
15  18  8
19  22  8
19  25  8
20  21  8
20  22  8
21  26  8
24  29  8
25  26  8
33  35  8
34  37  8
34  38  8
35  36  8
37  39  8
39  40  8
6  24  8
6  28  8
9  28  8
9  29  8

$$$$
25127713
  -OEChem-11282412102D

 54 57  0     0  0  0  0  0  0999 V2000
   12.3739   -3.5272    0.0000 Cl  0  0  0  0  0  0  0  0  0  0  0  0
   14.1174   -2.5473    0.0000 Cl  0  0  0  0  0  0  0  0  0  0  0  0
   10.6535   -2.5072    0.0000 F   0  0  0  0  0  0  0  0  0  0  0  0
    7.1962    0.5272    0.0000 O   0  0  0  0  0  0  0  0  0  0  0  0
    3.7320    3.5272    0.0000 O   0  0  0  0  0  0  0  0  0  0  0  0
    7.1962    2.5272    0.0000 O   0  0  0  0  0  0  0  0  0  0  0  0
    4.5981    2.0272    0.0000 N   0  0  0  0  0  0  0  0  0  0  0  0
   10.6882    2.5619    0.0000 N   0  0  0  0  0  0  0  0  0  0  0  0
   10.6766   -0.5074    0.0000 N   0  0  0  0  0  0  0  0  0  0  0  0
   11.5942    1.0064    0.0000 N   0  0  0  0  0  0  0  0  0  0  0  0
    6.3301    1.0272    0.0000 C   0  0  0  0  0  0  0  0  0  0  0  0
    5.4641    0.5272    0.0000 C   0  0  0  0  0  0  0  0  0  0  0  0
    6.3301    2.0272    0.0000 C   0  0  0  0  0  0  0  0  0  0  0  0
    4.5981    1.0272    0.0000 C   0  0  0  0  0  0  0  0  0  0  0  0
    5.4641    2.5272    0.0000 C   0  0  0  0  0  0  0  0  0  0  0  0
    3.7320    2.5272    0.0000 C   0  0  0  0  0  0  0  0  0  0  0  0
    8.0622    1.0272    0.0000 C   0  0  0  0  0  0  0  0  0  0  0  0
    8.9282    0.5272    0.0000 C   0  0  0  0  0  0  0  0  0  0  0  0
    8.0622    2.0272    0.0000 C   0  0  0  0  0  0  0  0  0  0  0  0
    9.7942    1.0272    0.0000 C   0  0  0  0  0  0  0  0  0  0  0  0
    2.8660    2.0272    0.0000 C   0  0  0  0  0  0  0  0  0  0  0  0
    9.7942    2.0272    0.0000 C   0  0  0  0  0  0  0  0  0  0  0  0
    8.9282    2.5272    0.0000 C   0  0  0  0  0  0  0  0  0  0  0  0
   10.6882    0.4926    0.0000 C   0  0  0  0  0  0  0  0  0  0  0  0
    2.0000    2.5272    0.0000 C   0  0  0  0  0  0  0  0  0  0  0  0
   11.5942    2.0480    0.0000 C   0  0  0  0  0  0  0  0  0  0  0  0
   11.5368   -1.0174    0.0000 C   0  0  0  0  0  0  0  0  0  0  0  0
    7.1962    3.5272    0.0000 C   0  0  0  0  0  0  0  0  0  0  0  0
   11.5252   -2.0173    0.0000 C   0  0  0  0  0  0  0  0  0  0  0  0
   12.4085   -0.5274    0.0000 C   0  0  0  0  0  0  0  0  0  0  0  0
   12.3854   -2.5273    0.0000 C   0  0  0  0  0  0  0  0  0  0  0  0
   13.2687   -1.0374    0.0000 C   0  0  0  0  0  0  0  0  0  0  0  0
   13.2572   -2.0373    0.0000 C   0  0  0  0  0  0  0  0  0  0  0  0
    6.8671    1.3372    0.0000 H   0  0  0  0  0  0  0  0  0  0  0  0
    5.0656    0.0523    0.0000 H   0  0  0  0  0  0  0  0  0  0  0  0
    5.8626    0.0523    0.0000 H   0  0  0  0  0  0  0  0  0  0  0  0
    6.9407    1.9196    0.0000 H   0  0  0  0  0  0  0  0  0  0  0  0
    6.5422    2.6098    0.0000 H   0  0  0  0  0  0  0  0  0  0  0  0
    3.9875    1.1349    0.0000 H   0  0  0  0  0  0  0  0  0  0  0  0
    4.3860    0.4446    0.0000 H   0  0  0  0  0  0  0  0  0  0  0  0
    5.8626    3.0022    0.0000 H   0  0  0  0  0  0  0  0  0  0  0  0
    5.0656    3.0022    0.0000 H   0  0  0  0  0  0  0  0  0  0  0  0
    8.9282   -0.0928    0.0000 H   0  0  0  0  0  0  0  0  0  0  0  0
    2.8660    1.4072    0.0000 H   0  0  0  0  0  0  0  0  0  0  0  0
    8.9282    3.1472    0.0000 H   0  0  0  0  0  0  0  0  0  0  0  0
    2.0000    3.1472    0.0000 H   0  0  0  0  0  0  0  0  0  0  0  0
    1.4631    2.2172    0.0000 H   0  0  0  0  0  0  0  0  0  0  0  0
   10.1361   -0.8112    0.0000 H   0  0  0  0  0  0  0  0  0  0  0  0
   12.1300    2.3601    0.0000 H   0  0  0  0  0  0  0  0  0  0  0  0
    7.8162    3.5272    0.0000 H   0  0  0  0  0  0  0  0  0  0  0  0
    7.1962    4.1472    0.0000 H   0  0  0  0  0  0  0  0  0  0  0  0
    6.5762    3.5272    0.0000 H   0  0  0  0  0  0  0  0  0  0  0  0
   12.4157    0.0925    0.0000 H   0  0  0  0  0  0  0  0  0  0  0  0
   13.8092   -0.7336    0.0000 H   0  0  0  0  0  0  0  0  0  0  0  0
  1 31  1  0  0  0  0
  2 33  1  0  0  0  0
  3 29  1  0  0  0  0
  4 11  1  0  0  0  0
  4 17  1  0  0  0  0
  5 16  2  0  0  0  0
  6 19  1  0  0  0  0
  6 28  1  0  0  0  0
  7 14  1  0  0  0  0
  7 15  1  0  0  0  0
  7 16  1  0  0  0  0
  8 22  1  0  0  0  0
  8 26  2  0  0  0  0
  9 24  1  0  0  0  0
  9 27  1  0  0  0  0
  9 48  1  0  0  0  0
 10 24  2  0  0  0  0
 10 26  1  0  0  0  0
 11 12  1  0  0  0  0
 11 13  1  0  0  0  0
 11 34  1  0  0  0  0
 12 14  1  0  0  0  0
 12 35  1  0  0  0  0
 12 36  1  0  0  0  0
 13 15  1  0  0  0  0
 13 37  1  0  0  0  0
 13 38  1  0  0  0  0
 14 39  1  0  0  0  0
 14 40  1  0  0  0  0
 15 41  1  0  0  0  0
 15 42  1  0  0  0  0
 16 21  1  0  0  0  0
 17 18  1  0  0  0  0
 17 19  2  0  0  0  0
 18 20  2  0  0  0  0
 18 43  1  0  0  0  0
 19 23  1  0  0  0  0
 20 22  1  0  0  0  0
 20 24  1  0  0  0  0
 21 25  2  0  0  0  0
 21 44  1  0  0  0  0
 22 23  2  0  0  0  0
 23 45  1  0  0  0  0
 25 46  1  0  0  0  0
 25 47  1  0  0  0  0
 26 49  1  0  0  0  0
 27 29  2  0  0  0  0
 27 30  1  0  0  0  0
 28 50  1  0  0  0  0
 28 51  1  0  0  0  0
 28 52  1  0  0  0  0
 29 31  1  0  0  0  0
 30 32  2  0  0  0  0
 30 53  1  0  0  0  0
 31 33  2  0  0  0  0
 32 33  1  0  0  0  0
 32 54  1  0  0  0  0
M  END
> <PUBCHEM_COMPOUND_CID>
25127713

> <PUBCHEM_COMPOUND_CANONICALIZED>
1

> <PUBCHEM_CACTVS_COMPLEXITY>
684

> <PUBCHEM_CACTVS_HBOND_ACCEPTOR>
7

> <PUBCHEM_CACTVS_HBOND_DONOR>
1

> <PUBCHEM_CACTVS_ROTATABLE_BOND>
6

> <PUBCHEM_CACTVS_SUBSKEYS>
AAADceB7sQAGAAAAAAAAAAAAAAAAAAAAAAA8eIEAAAAAAACx9AAAHwIQAAAADB7hni439vfIFACoAydzdACCiCkxJ6AJ2mA+7tiNLuLF+tuGPCru1hvK6Kew0BMOIEBBAgICQARAgIIEBASACAAAAAAAAA==

> <PUBCHEM_IUPAC_OPENEYE_NAME>
1-[4-[4-(3,4-dichloro-2-fluoro-anilino)-7-methoxy-quinazolin-6-yl]oxy-1-piperidyl]prop-2-en-1-one

> <PUBCHEM_IUPAC_CAS_NAME>
1-[4-[[4-(3,4-dichloro-2-fluoroanilino)-7-methoxy-6-quinazolinyl]oxy]-1-piperidinyl]-2-propen-1-one

> <PUBCHEM_IUPAC_NAME_MARKUP>
1-[4-[4-(3,4-dichloro-2-fluoroanilino)-7-methoxyquinazolin-6-yl]oxypiperidin-1-yl]prop-2-en-1-one

> <PUBCHEM_IUPAC_NAME>
1-[4-[4-(3,4-dichloro-2-fluoroanilino)-7-methoxyquinazolin-6-yl]oxypiperidin-1-yl]prop-2-en-1-one

> <PUBCHEM_IUPAC_SYSTEMATIC_NAME>
1-[4-[4-[[3,4-bis(chloranyl)-2-fluoranyl-phenyl]amino]-7-methoxy-quinazolin-6-yl]oxypiperidin-1-yl]prop-2-en-1-one

> <PUBCHEM_IUPAC_TRADITIONAL_NAME>
1-[4-[4-(3,4-dichloro-2-fluoro-anilino)-7-methoxy-quinazolin-6-yl]oxypiperidino]prop-2-en-1-one

> <PUBCHEM_IUPAC_INCHI>
InChI=1S/C23H21Cl2FN4O3/c1-3-20(31)30-8-6-13(7-9-30)33-19-10-14-17(11-18(19)32-2)27-12-28-23(14)29-16-5-4-15(24)21(25)22(16)26/h3-5,10-13H,1,6-9H2,2H3,(H,27,28,29)

> <PUBCHEM_IUPAC_INCHIKEY>
LPFWVDIFUFFKJU-UHFFFAOYSA-N

> <PUBCHEM_XLOGP3_AA>
5.4

> <PUBCHEM_EXACT_MASS>
490.0974741

> <PUBCHEM_MOLECULAR_FORMULA>
C23H21Cl2FN4O3

> <PUBCHEM_MOLECULAR_WEIGHT>
491.3

> <PUBCHEM_OPENEYE_CAN_SMILES>
COC1=C(C=C2C(=C1)N=CN=C2NC3=C(C(=C(C=C3)Cl)Cl)F)OC4CCN(CC4)C(=O)C=C

> <PUBCHEM_OPENEYE_ISO_SMILES>
COC1=C(C=C2C(=C1)N=CN=C2NC3=C(C(=C(C=C3)Cl)Cl)F)OC4CCN(CC4)C(=O)C=C

> <PUBCHEM_CACTVS_TPSA>
76.6

> <PUBCHEM_MONOISOTOPIC_WEIGHT>
490.0974741

> <PUBCHEM_TOTAL_CHARGE>
0

> <PUBCHEM_HEAVY_ATOM_COUNT>
33

> <PUBCHEM_ATOM_DEF_STEREO_COUNT>
0

> <PUBCHEM_ATOM_UDEF_STEREO_COUNT>
0

> <PUBCHEM_BOND_DEF_STEREO_COUNT>
0

> <PUBCHEM_BOND_UDEF_STEREO_COUNT>
0

> <PUBCHEM_ISOTOPIC_ATOM_COUNT>
0

> <PUBCHEM_COMPONENT_COUNT>
1

> <PUBCHEM_CACTVS_TAUTO_COUNT>
-1

> <PUBCHEM_COORDINATE_TYPE>
1
5
255

> <PUBCHEM_BONDANNOTATIONS>
10  24  8
10  26  8
17  18  8
17  19  8
18  20  8
19  23  8
20  22  8
20  24  8
22  23  8
27  29  8
27  30  8
29  31  8
30  32  8
31  33  8
32  33  8
8  22  8
8  26  8

$$$$
25181472
  -OEChem-11282412102D

 70 74  0     0  0  0  0  0  0999 V2000
    9.8744   -3.3962    0.0000 S   0  0  0  0  0  0  0  0  0  0  0  0
    5.4641    1.2990    0.0000 S   0  0  0  0  0  0  0  0  0  0  0  0
    6.3301   -3.2010    0.0000 F   0  0  0  0  0  0  0  0  0  0  0  0
    2.8660    6.7990    0.0000 F   0  0  0  0  0  0  0  0  0  0  0  0
    8.0622   -2.2010    0.0000 O   0  0  0  0  0  0  0  0  0  0  0  0
   17.4580   -5.9330    0.0000 O   0  0  0  0  0  0  0  0  0  0  0  0
    4.5981    2.7990    0.0000 O   0  0  0  0  0  0  0  0  0  0  0  0
   14.9580   -5.0670    0.0000 N   0  0  0  0  0  0  0  0  0  0  0  0
   11.9580   -3.3349    0.0000 N   0  0  0  0  0  0  0  0  0  0  0  0
    8.0622   -5.2010    0.0000 N   0  0  0  0  0  0  0  0  0  0  0  0
    4.5981   -0.2010    0.0000 N   0  0  0  0  0  0  0  0  0  0  0  0
    3.7320    1.2990    0.0000 N   0  0  0  0  0  0  0  0  0  0  0  0
   10.4580   -4.2010    0.0000 C   0  0  0  0  0  0  0  0  0  0  0  0
    8.9282   -3.7010    0.0000 C   0  0  0  0  0  0  0  0  0  0  0  0
   14.4580   -4.2010    0.0000 C   0  0  0  0  0  0  0  0  0  0  0  0
   13.4580   -4.2010    0.0000 C   0  0  0  0  0  0  0  0  0  0  0  0
   11.4580   -4.2010    0.0000 C   0  0  0  0  0  0  0  0  0  0  0  0
    8.9282   -4.7010    0.0000 C   0  0  0  0  0  0  0  0  0  0  0  0
    9.8744   -5.0057    0.0000 C   0  0  0  0  0  0  0  0  0  0  0  0
    8.0622   -3.2010    0.0000 C   0  0  0  0  0  0  0  0  0  0  0  0
   12.9580   -5.0670    0.0000 C   0  0  0  0  0  0  0  0  0  0  0  0
   11.9580   -5.0670    0.0000 C   0  0  0  0  0  0  0  0  0  0  0  0
   15.9580   -5.0670    0.0000 C   0  0  0  0  0  0  0  0  0  0  0  0
   12.9580   -3.3349    0.0000 C   0  0  0  0  0  0  0  0  0  0  0  0
    7.1962   -3.7010    0.0000 C   0  0  0  0  0  0  0  0  0  0  0  0
   16.4580   -5.9330    0.0000 C   0  0  0  0  0  0  0  0  0  0  0  0
    7.1962   -4.7010    0.0000 C   0  0  0  0  0  0  0  0  0  0  0  0
    7.1962   -1.7010    0.0000 C   0  0  0  0  0  0  0  0  0  0  0  0
    5.4641   -0.7010    0.0000 C   0  0  0  0  0  0  0  0  0  0  0  0
    6.3301   -2.2010    0.0000 C   0  0  0  0  0  0  0  0  0  0  0  0
    7.1962   -0.7010    0.0000 C   0  0  0  0  0  0  0  0  0  0  0  0
    5.4641   -1.7010    0.0000 C   0  0  0  0  0  0  0  0  0  0  0  0
    6.3301   -0.2010    0.0000 C   0  0  0  0  0  0  0  0  0  0  0  0
    2.8660    2.7990    0.0000 C   0  0  0  0  0  0  0  0  0  0  0  0
    2.8660    3.7990    0.0000 C   0  0  0  0  0  0  0  0  0  0  0  0
    3.7320    2.2990    0.0000 C   0  0  0  0  0  0  0  0  0  0  0  0
    3.7320    4.2990    0.0000 C   0  0  0  0  0  0  0  0  0  0  0  0
    2.0000    4.2990    0.0000 C   0  0  0  0  0  0  0  0  0  0  0  0
    4.5981    0.7990    0.0000 C   0  0  0  0  0  0  0  0  0  0  0  0
    3.7320    5.2990    0.0000 C   0  0  0  0  0  0  0  0  0  0  0  0
    2.0000    5.2990    0.0000 C   0  0  0  0  0  0  0  0  0  0  0  0
   17.9580   -6.7990    0.0000 C   0  0  0  0  0  0  0  0  0  0  0  0
    2.8660    5.7990    0.0000 C   0  0  0  0  0  0  0  0  0  0  0  0
   15.0406   -3.9889    0.0000 H   0  0  0  0  0  0  0  0  0  0  0  0
   14.3504   -3.5904    0.0000 H   0  0  0  0  0  0  0  0  0  0  0  0
   10.0670   -5.5950    0.0000 H   0  0  0  0  0  0  0  0  0  0  0  0
   13.2680   -5.6039    0.0000 H   0  0  0  0  0  0  0  0  0  0  0  0
   14.6480   -5.6039    0.0000 H   0  0  0  0  0  0  0  0  0  0  0  0
   11.6480   -5.6039    0.0000 H   0  0  0  0  0  0  0  0  0  0  0  0
   16.5406   -4.8549    0.0000 H   0  0  0  0  0  0  0  0  0  0  0  0
   15.8504   -4.4564    0.0000 H   0  0  0  0  0  0  0  0  0  0  0  0
   13.2680   -2.7980    0.0000 H   0  0  0  0  0  0  0  0  0  0  0  0
    6.6592   -3.3910    0.0000 H   0  0  0  0  0  0  0  0  0  0  0  0
   15.8754   -6.1451    0.0000 H   0  0  0  0  0  0  0  0  0  0  0  0
   16.5657   -6.5436    0.0000 H   0  0  0  0  0  0  0  0  0  0  0  0
    6.6592   -5.0110    0.0000 H   0  0  0  0  0  0  0  0  0  0  0  0
    7.7331   -0.3910    0.0000 H   0  0  0  0  0  0  0  0  0  0  0  0
    4.9272   -2.0110    0.0000 H   0  0  0  0  0  0  0  0  0  0  0  0
    6.3301    0.4190    0.0000 H   0  0  0  0  0  0  0  0  0  0  0  0
    2.2554    2.9067    0.0000 H   0  0  0  0  0  0  0  0  0  0  0  0
    2.6540    2.2164    0.0000 H   0  0  0  0  0  0  0  0  0  0  0  0
    4.0611   -0.5110    0.0000 H   0  0  0  0  0  0  0  0  0  0  0  0
    4.2690    3.9890    0.0000 H   0  0  0  0  0  0  0  0  0  0  0  0
    1.4631    3.9890    0.0000 H   0  0  0  0  0  0  0  0  0  0  0  0
    3.1951    0.9890    0.0000 H   0  0  0  0  0  0  0  0  0  0  0  0
    4.2690    5.6090    0.0000 H   0  0  0  0  0  0  0  0  0  0  0  0
    1.4631    5.6090    0.0000 H   0  0  0  0  0  0  0  0  0  0  0  0
   17.4211   -7.1090    0.0000 H   0  0  0  0  0  0  0  0  0  0  0  0
   18.2680   -7.3360    0.0000 H   0  0  0  0  0  0  0  0  0  0  0  0
   18.4950   -6.4890    0.0000 H   0  0  0  0  0  0  0  0  0  0  0  0
  1 13  1  0  0  0  0
  1 14  1  0  0  0  0
  2 39  2  0  0  0  0
  3 30  1  0  0  0  0
  4 43  1  0  0  0  0
  5 20  1  0  0  0  0
  5 28  1  0  0  0  0
  6 26  1  0  0  0  0
  6 42  1  0  0  0  0
  7 36  2  0  0  0  0
  8 15  1  0  0  0  0
  8 23  1  0  0  0  0
  8 48  1  0  0  0  0
  9 17  2  0  0  0  0
  9 24  1  0  0  0  0
 10 18  2  0  0  0  0
 10 27  1  0  0  0  0
 11 29  1  0  0  0  0
 11 39  1  0  0  0  0
 11 62  1  0  0  0  0
 12 36  1  0  0  0  0
 12 39  1  0  0  0  0
 12 65  1  0  0  0  0
 13 17  1  0  0  0  0
 13 19  2  0  0  0  0
 14 18  1  0  0  0  0
 14 20  2  0  0  0  0
 15 16  1  0  0  0  0
 15 44  1  0  0  0  0
 15 45  1  0  0  0  0
 16 21  1  0  0  0  0
 16 24  2  0  0  0  0
 17 22  1  0  0  0  0
 18 19  1  0  0  0  0
 19 46  1  0  0  0  0
 20 25  1  0  0  0  0
 21 22  2  0  0  0  0
 21 47  1  0  0  0  0
 22 49  1  0  0  0  0
 23 26  1  0  0  0  0
 23 50  1  0  0  0  0
 23 51  1  0  0  0  0
 24 52  1  0  0  0  0
 25 27  2  0  0  0  0
 25 53  1  0  0  0  0
 26 54  1  0  0  0  0
 26 55  1  0  0  0  0
 27 56  1  0  0  0  0
 28 30  2  0  0  0  0
 28 31  1  0  0  0  0
 29 32  2  0  0  0  0
 29 33  1  0  0  0  0
 30 32  1  0  0  0  0
 31 33  2  0  0  0  0
 31 57  1  0  0  0  0
 32 58  1  0  0  0  0
 33 59  1  0  0  0  0
 34 35  1  0  0  0  0
 34 36  1  0  0  0  0
 34 60  1  0  0  0  0
 34 61  1  0  0  0  0
 35 37  2  0  0  0  0
 35 38  1  0  0  0  0
 37 40  1  0  0  0  0
 37 63  1  0  0  0  0
 38 41  2  0  0  0  0
 38 64  1  0  0  0  0
 40 43  2  0  0  0  0
 40 66  1  0  0  0  0
 41 43  1  0  0  0  0
 41 67  1  0  0  0  0
 42 68  1  0  0  0  0
 42 69  1  0  0  0  0
 42 70  1  0  0  0  0
M  END
> <PUBCHEM_COMPOUND_CID>
25181472

> <PUBCHEM_COMPOUND_CANONICALIZED>
1

> <PUBCHEM_CACTVS_COMPLEXITY>
902

> <PUBCHEM_CACTVS_HBOND_ACCEPTOR>
10

> <PUBCHEM_CACTVS_HBOND_DONOR>
3

> <PUBCHEM_CACTVS_ROTATABLE_BOND>
11

> <PUBCHEM_CACTVS_SUBSKEYS>
AAADceB7sYBgAAAAAAAAAAAAAAAAASAAAAA8eIEAAAAAAFgB/gAAHwQQAAAADAzh3g4/x7LIFAisAzV3VACDqKAxKjlI2L8+bJiOJvLk9ZuHOCzu0Rv46Ce4yOCOAEAAAAAAAAAAgAAAAAAAAAAAAAAAAA==

> <PUBCHEM_IUPAC_OPENEYE_NAME>
N-[[3-fluoro-4-[2-[5-[(2-methoxyethylamino)methyl]-2-pyridyl]thieno[3,2-b]pyridin-7-yl]oxy-phenyl]carbamothioyl]-2-(4-fluorophenyl)acetamide

> <PUBCHEM_IUPAC_CAS_NAME>
N-[[3-fluoro-4-[[2-[5-[(2-methoxyethylamino)methyl]-2-pyridinyl]-7-thieno[3,2-b]pyridinyl]oxy]anilino]-sulfanylidenemethyl]-2-(4-fluorophenyl)acetamide

> <PUBCHEM_IUPAC_NAME_MARKUP>
<I>N</I>-[[3-fluoro-4-[2-[5-[(2-methoxyethylamino)methyl]pyridin-2-yl]thieno[3,2-b]pyridin-7-yl]oxyphenyl]carbamothioyl]-2-(4-fluorophenyl)acetamide

> <PUBCHEM_IUPAC_NAME>
N-[[3-fluoro-4-[2-[5-[(2-methoxyethylamino)methyl]pyridin-2-yl]thieno[3,2-b]pyridin-7-yl]oxyphenyl]carbamothioyl]-2-(4-fluorophenyl)acetamide

> <PUBCHEM_IUPAC_SYSTEMATIC_NAME>
N-[[3-fluoranyl-4-[2-[5-[(2-methoxyethylamino)methyl]pyridin-2-yl]thieno[3,2-b]pyridin-7-yl]oxy-phenyl]carbamothioyl]-2-(4-fluorophenyl)ethanamide

> <PUBCHEM_IUPAC_TRADITIONAL_NAME>
N-[[3-fluoro-4-[2-[5-[(2-methoxyethylamino)methyl]-2-pyridyl]thieno[3,2-b]pyridin-7-yl]oxy-phenyl]thiocarbamoyl]-2-(4-fluorophenyl)acetamide

> <PUBCHEM_IUPAC_INCHI>
InChI=1S/C31H27F2N5O3S2/c1-40-13-12-34-17-20-4-8-24(36-18-20)28-16-25-30(43-28)27(10-11-35-25)41-26-9-7-22(15-23(26)33)37-31(42)38-29(39)14-19-2-5-21(32)6-3-19/h2-11,15-16,18,34H,12-14,17H2,1H3,(H2,37,38,39,42)

> <PUBCHEM_IUPAC_INCHIKEY>
YRCHYHRCBXNYNU-UHFFFAOYSA-N

> <PUBCHEM_XLOGP3_AA>
5.1

> <PUBCHEM_EXACT_MASS>
619.15233841

> <PUBCHEM_MOLECULAR_FORMULA>
C31H27F2N5O3S2

> <PUBCHEM_MOLECULAR_WEIGHT>
619.7

> <PUBCHEM_OPENEYE_CAN_SMILES>
COCCNCC1=CN=C(C=C1)C2=CC3=NC=CC(=C3S2)OC4=C(C=C(C=C4)NC(=S)NC(=O)CC5=CC=C(C=C5)F)F

> <PUBCHEM_OPENEYE_ISO_SMILES>
COCCNCC1=CN=C(C=C1)C2=CC3=NC=CC(=C3S2)OC4=C(C=C(C=C4)NC(=S)NC(=O)CC5=CC=C(C=C5)F)F

> <PUBCHEM_CACTVS_TPSA>
158

> <PUBCHEM_MONOISOTOPIC_WEIGHT>
619.15233841

> <PUBCHEM_TOTAL_CHARGE>
0

> <PUBCHEM_HEAVY_ATOM_COUNT>
43

> <PUBCHEM_ATOM_DEF_STEREO_COUNT>
0

> <PUBCHEM_ATOM_UDEF_STEREO_COUNT>
0

> <PUBCHEM_BOND_DEF_STEREO_COUNT>
0

> <PUBCHEM_BOND_UDEF_STEREO_COUNT>
0

> <PUBCHEM_ISOTOPIC_ATOM_COUNT>
0

> <PUBCHEM_COMPONENT_COUNT>
1

> <PUBCHEM_CACTVS_TAUTO_COUNT>
-1

> <PUBCHEM_COORDINATE_TYPE>
1
5
255

> <PUBCHEM_BONDANNOTATIONS>
1  13  8
1  14  8
10  18  8
10  27  8
13  19  8
14  18  8
14  20  8
16  21  8
16  24  8
17  22  8
18  19  8
20  25  8
21  22  8
25  27  8
28  30  8
28  31  8
29  32  8
29  33  8
30  32  8
31  33  8
35  37  8
35  38  8
37  40  8
38  41  8
40  43  8
41  43  8
9  17  8
9  24  8

$$$$
44195703
  -OEChem-11282412102D

 94 97  0     0  0  0  0  0  0999 V2000
   14.9771    4.6687    0.0000 Cl  0  0  0  0  0  0  0  0  0  0  0  0
   11.4852    3.7234    0.0000 O   0  0  0  0  0  0  0  0  0  0  0  0
    8.8871    2.2234    0.0000 O   0  0  0  0  0  0  0  0  0  0  0  0
    9.7531    6.7234    0.0000 O   0  0  0  0  0  0  0  0  0  0  0  0
   13.3375    1.5204    0.0000 O   0  0  0  0  0  0  0  0  0  0  0  0
   14.7219    0.6996    0.0000 O   0  0  0  0  0  0  0  0  0  0  0  0
    0.5369    8.9249    0.0000 O   0  0  0  0  0  0  0  0  0  0  0  0
    4.8671    8.4249    0.0000 O   0  0  0  0  0  0  0  0  0  0  0  0
   14.0534   15.8498    0.0000 O   0  0  0  0  0  0  0  0  0  0  0  0
    9.7233   16.3498    0.0000 O   0  0  0  0  0  0  0  0  0  0  0  0
    1.4030    7.4249    0.0000 O   0  0  0  0  0  0  0  0  0  0  0  0
    4.0010    9.9249    0.0000 O   0  0  0  0  0  0  0  0  0  0  0  0
   13.1874   17.3498    0.0000 O   0  0  0  0  0  0  0  0  0  0  0  0
   10.5893   14.8498    0.0000 O   0  0  0  0  0  0  0  0  0  0  0  0
    8.8871    9.2234    0.0000 N   0  0  0  0  0  0  0  0  0  0  0  0
    8.8871   11.2234    0.0000 N   0  0  0  0  0  0  0  0  0  0  0  0
   13.2336    3.6888    0.0000 N   0  0  0  0  0  0  0  0  0  0  0  0
   13.2451    6.7580    0.0000 N   0  0  0  0  0  0  0  0  0  0  0  0
   14.1512    5.2026    0.0000 N   0  0  0  0  0  0  0  0  0  0  0  0
    9.7531    9.7234    0.0000 C   0  0  0  0  0  0  0  0  0  0  0  0
    8.0210    9.7234    0.0000 C   0  0  0  0  0  0  0  0  0  0  0  0
    9.7531   10.7234    0.0000 C   0  0  0  0  0  0  0  0  0  0  0  0
    8.0210   10.7234    0.0000 C   0  0  0  0  0  0  0  0  0  0  0  0
    8.8871    8.2234    0.0000 C   0  0  0  0  0  0  0  0  0  0  0  0
   10.6191    3.2234    0.0000 C   0  0  0  0  0  0  0  0  0  0  0  0
    9.7531    7.7234    0.0000 C   0  0  0  0  0  0  0  0  0  0  0  0
    8.8871   12.2234    0.0000 C   0  0  0  0  0  0  0  0  0  0  0  0
   10.6191    2.2234    0.0000 C   0  0  0  0  0  0  0  0  0  0  0  0
    9.7531    3.7234    0.0000 C   0  0  0  0  0  0  0  0  0  0  0  0
    9.7531    1.7234    0.0000 C   0  0  0  0  0  0  0  0  0  0  0  0
    8.8871    3.2234    0.0000 C   0  0  0  0  0  0  0  0  0  0  0  0
   11.4852    4.7234    0.0000 C   0  0  0  0  0  0  0  0  0  0  0  0
   10.6191    6.2234    0.0000 C   0  0  0  0  0  0  0  0  0  0  0  0
   12.3512    5.2234    0.0000 C   0  0  0  0  0  0  0  0  0  0  0  0
   10.6191    5.2234    0.0000 C   0  0  0  0  0  0  0  0  0  0  0  0
   12.3512    6.2234    0.0000 C   0  0  0  0  0  0  0  0  0  0  0  0
   11.4852    6.7234    0.0000 C   0  0  0  0  0  0  0  0  0  0  0  0
   13.2451    4.6887    0.0000 C   0  0  0  0  0  0  0  0  0  0  0  0
   14.0937    3.1788    0.0000 C   0  0  0  0  0  0  0  0  0  0  0  0
   14.1512    6.2442    0.0000 C   0  0  0  0  0  0  0  0  0  0  0  0
   14.0822    2.1789    0.0000 C   0  0  0  0  0  0  0  0  0  0  0  0
   14.9655    3.6688    0.0000 C   0  0  0  0  0  0  0  0  0  0  0  0
   14.9424    1.6689    0.0000 C   0  0  0  0  0  0  0  0  0  0  0  0
   15.8257    3.1588    0.0000 C   0  0  0  0  0  0  0  0  0  0  0  0
   15.8141    2.1588    0.0000 C   0  0  0  0  0  0  0  0  0  0  0  0
   13.7321    0.6079    0.0000 C   0  0  0  0  0  0  0  0  0  0  0  0
    2.2690    8.9249    0.0000 C   0  0  0  0  0  0  0  0  0  0  0  0
    3.1350    8.4249    0.0000 C   0  0  0  0  0  0  0  0  0  0  0  0
   12.3213   15.8498    0.0000 C   0  0  0  0  0  0  0  0  0  0  0  0
   11.4553   16.3498    0.0000 C   0  0  0  0  0  0  0  0  0  0  0  0
    1.4030    8.4249    0.0000 C   0  0  0  0  0  0  0  0  0  0  0  0
    4.0010    8.9249    0.0000 C   0  0  0  0  0  0  0  0  0  0  0  0
   13.1874   16.3498    0.0000 C   0  0  0  0  0  0  0  0  0  0  0  0
   10.5893   15.8498    0.0000 C   0  0  0  0  0  0  0  0  0  0  0  0
    9.9652    9.1408    0.0000 H   0  0  0  0  0  0  0  0  0  0  0  0
   10.3637    9.8310    0.0000 H   0  0  0  0  0  0  0  0  0  0  0  0
    7.4105    9.8310    0.0000 H   0  0  0  0  0  0  0  0  0  0  0  0
    7.8090    9.1408    0.0000 H   0  0  0  0  0  0  0  0  0  0  0  0
   10.3637   10.6157    0.0000 H   0  0  0  0  0  0  0  0  0  0  0  0
    9.9652   11.3060    0.0000 H   0  0  0  0  0  0  0  0  0  0  0  0
    7.8090   11.3060    0.0000 H   0  0  0  0  0  0  0  0  0  0  0  0
    7.4105   10.6157    0.0000 H   0  0  0  0  0  0  0  0  0  0  0  0
    8.2765    8.3310    0.0000 H   0  0  0  0  0  0  0  0  0  0  0  0
    8.6750    7.6408    0.0000 H   0  0  0  0  0  0  0  0  0  0  0  0
   10.6191    3.8434    0.0000 H   0  0  0  0  0  0  0  0  0  0  0  0
   10.3637    7.6157    0.0000 H   0  0  0  0  0  0  0  0  0  0  0  0
    9.9652    8.3060    0.0000 H   0  0  0  0  0  0  0  0  0  0  0  0
    9.5071   12.2234    0.0000 H   0  0  0  0  0  0  0  0  0  0  0  0
    8.8871   12.8434    0.0000 H   0  0  0  0  0  0  0  0  0  0  0  0
    8.2671   12.2234    0.0000 H   0  0  0  0  0  0  0  0  0  0  0  0
   10.8312    1.6408    0.0000 H   0  0  0  0  0  0  0  0  0  0  0  0
   11.2297    2.3310    0.0000 H   0  0  0  0  0  0  0  0  0  0  0  0
   10.1516    4.1983    0.0000 H   0  0  0  0  0  0  0  0  0  0  0  0
    9.3546    4.1983    0.0000 H   0  0  0  0  0  0  0  0  0  0  0  0
    9.3546    1.2484    0.0000 H   0  0  0  0  0  0  0  0  0  0  0  0
   10.1516    1.2484    0.0000 H   0  0  0  0  0  0  0  0  0  0  0  0
    8.6750    3.8060    0.0000 H   0  0  0  0  0  0  0  0  0  0  0  0
    8.2765    3.1157    0.0000 H   0  0  0  0  0  0  0  0  0  0  0  0
   10.0822    4.9134    0.0000 H   0  0  0  0  0  0  0  0  0  0  0  0
   11.4852    7.3434    0.0000 H   0  0  0  0  0  0  0  0  0  0  0  0
   12.6931    3.3850    0.0000 H   0  0  0  0  0  0  0  0  0  0  0  0
   14.6869    6.5563    0.0000 H   0  0  0  0  0  0  0  0  0  0  0  0
   16.3662    3.4625    0.0000 H   0  0  0  0  0  0  0  0  0  0  0  0
   16.3474    1.8426    0.0000 H   0  0  0  0  0  0  0  0  0  0  0  0
   13.1403    0.4230    0.0000 H   0  0  0  0  0  0  0  0  0  0  0  0
   13.8538    0.0000    0.0000 H   0  0  0  0  0  0  0  0  0  0  0  0
    2.2690    9.5449    0.0000 H   0  0  0  0  0  0  0  0  0  0  0  0
    3.1350    7.8049    0.0000 H   0  0  0  0  0  0  0  0  0  0  0  0
   12.3213   15.2298    0.0000 H   0  0  0  0  0  0  0  0  0  0  0  0
   11.4553   16.9698    0.0000 H   0  0  0  0  0  0  0  0  0  0  0  0
    0.0000    8.6149    0.0000 H   0  0  0  0  0  0  0  0  0  0  0  0
    5.4040    8.7349    0.0000 H   0  0  0  0  0  0  0  0  0  0  0  0
   14.5903   16.1598    0.0000 H   0  0  0  0  0  0  0  0  0  0  0  0
    9.1863   16.0398    0.0000 H   0  0  0  0  0  0  0  0  0  0  0  0
  1 42  1  0  0  0  0
  2 25  1  0  0  0  0
  2 32  1  0  0  0  0
  3 30  1  0  0  0  0
  3 31  1  0  0  0  0
  4 26  1  0  0  0  0
  4 33  1  0  0  0  0
  5 41  1  0  0  0  0
  5 46  1  0  0  0  0
  6 43  1  0  0  0  0
  6 46  1  0  0  0  0
  7 51  1  0  0  0  0
  7 91  1  0  0  0  0
  8 52  1  0  0  0  0
  8 92  1  0  0  0  0
  9 53  1  0  0  0  0
  9 93  1  0  0  0  0
 10 54  1  0  0  0  0
 10 94  1  0  0  0  0
 11 51  2  0  0  0  0
 12 52  2  0  0  0  0
 13 53  2  0  0  0  0
 14 54  2  0  0  0  0
 15 20  1  0  0  0  0
 15 21  1  0  0  0  0
 15 24  1  0  0  0  0
 16 22  1  0  0  0  0
 16 23  1  0  0  0  0
 16 27  1  0  0  0  0
 17 38  1  0  0  0  0
 17 39  1  0  0  0  0
 17 81  1  0  0  0  0
 18 36  1  0  0  0  0
 18 40  2  0  0  0  0
 19 38  2  0  0  0  0
 19 40  1  0  0  0  0
 20 22  1  0  0  0  0
 20 55  1  0  0  0  0
 20 56  1  0  0  0  0
 21 23  1  0  0  0  0
 21 57  1  0  0  0  0
 21 58  1  0  0  0  0
 22 59  1  0  0  0  0
 22 60  1  0  0  0  0
 23 61  1  0  0  0  0
 23 62  1  0  0  0  0
 24 26  1  0  0  0  0
 24 63  1  0  0  0  0
 24 64  1  0  0  0  0
 25 28  1  0  0  0  0
 25 29  1  0  0  0  0
 25 65  1  0  0  0  0
 26 66  1  0  0  0  0
 26 67  1  0  0  0  0
 27 68  1  0  0  0  0
 27 69  1  0  0  0  0
 27 70  1  0  0  0  0
 28 30  1  0  0  0  0
 28 71  1  0  0  0  0
 28 72  1  0  0  0  0
 29 31  1  0  0  0  0
 29 73  1  0  0  0  0
 29 74  1  0  0  0  0
 30 75  1  0  0  0  0
 30 76  1  0  0  0  0
 31 77  1  0  0  0  0
 31 78  1  0  0  0  0
 32 34  1  0  0  0  0
 32 35  2  0  0  0  0
 33 35  1  0  0  0  0
 33 37  2  0  0  0  0
 34 36  2  0  0  0  0
 34 38  1  0  0  0  0
 35 79  1  0  0  0  0
 36 37  1  0  0  0  0
 37 80  1  0  0  0  0
 39 41  1  0  0  0  0
 39 42  2  0  0  0  0
 40 82  1  0  0  0  0
 41 43  2  0  0  0  0
 42 44  1  0  0  0  0
 43 45  1  0  0  0  0
 44 45  2  0  0  0  0
 44 83  1  0  0  0  0
 45 84  1  0  0  0  0
 46 85  1  0  0  0  0
 46 86  1  0  0  0  0
 47 48  2  0  0  0  0
 47 51  1  0  0  0  0
 47 87  1  0  0  0  0
 48 52  1  0  0  0  0
 48 88  1  0  0  0  0
 49 50  2  0  0  0  0
 49 53  1  0  0  0  0
 49 89  1  0  0  0  0
 50 54  1  0  0  0  0
 50 90  1  0  0  0  0
M  END
> <PUBCHEM_COMPOUND_CID>
44195703

> <PUBCHEM_COMPOUND_CANONICALIZED>
1

> <PUBCHEM_CACTVS_COMPLEXITY>
862

> <PUBCHEM_CACTVS_HBOND_ACCEPTOR>
18

> <PUBCHEM_CACTVS_HBOND_DONOR>
5

> <PUBCHEM_CACTVS_ROTATABLE_BOND>
12

> <PUBCHEM_CACTVS_SUBSKEYS>
AAADcfB/vAAEAAAAAAAAAAAAAAAAASAAAAA8eJECAAAAAEix9AAAHgIQCAAADB7hnic3/vfIFgCoAybzbACCiCkxJ6AJ2CA/7tifb2LF+9v3PCrvwB/e+aeQ8C8OICAACwAKUBBAQAAWABSgIAAAAAAAAA==

> <PUBCHEM_IUPAC_OPENEYE_NAME>
N-(5-chloro-1,3-benzodioxol-4-yl)-7-[2-(4-methylpiperazin-1-yl)ethoxy]-5-tetrahydropyran-4-yloxy-quinazolin-4-amine;fumaric acid

> <PUBCHEM_IUPAC_CAS_NAME>
(E)-2-butenedioic acid;N-(5-chloro-1,3-benzodioxol-4-yl)-7-[2-(4-methyl-1-piperazinyl)ethoxy]-5-(4-oxanyloxy)-4-quinazolinamine

> <PUBCHEM_IUPAC_NAME_MARKUP>
(<I>E</I>)-but-2-enedioic acid;<I>N</I>-(5-chloro-1,3-benzodioxol-4-yl)-7-[2-(4-methylpiperazin-1-yl)ethoxy]-5-(oxan-4-yloxy)quinazolin-4-amine

> <PUBCHEM_IUPAC_NAME>
(E)-but-2-enedioic acid;N-(5-chloro-1,3-benzodioxol-4-yl)-7-[2-(4-methylpiperazin-1-yl)ethoxy]-5-(oxan-4-yloxy)quinazolin-4-amine

> <PUBCHEM_IUPAC_SYSTEMATIC_NAME>
(E)-but-2-enedioic acid;N-(5-chloranyl-1,3-benzodioxol-4-yl)-7-[2-(4-methylpiperazin-1-yl)ethoxy]-5-(oxan-4-yloxy)quinazolin-4-amine

> <PUBCHEM_IUPAC_TRADITIONAL_NAME>
(5-chloro-1,3-benzodioxol-4-yl)-[7-[2-(4-methylpiperazino)ethoxy]-5-tetrahydropyran-4-yloxy-quinazolin-4-yl]amine;fumaric acid

> <PUBCHEM_IUPAC_INCHI>
InChI=1S/C27H32ClN5O5.2C4H4O4/c1-32-6-8-33(9-7-32)10-13-35-19-14-21-24(23(15-19)38-18-4-11-34-12-5-18)27(30-16-29-21)31-25-20(28)2-3-22-26(25)37-17-36-22;2*5-3(6)1-2-4(7)8/h2-3,14-16,18H,4-13,17H2,1H3,(H,29,30,31);2*1-2H,(H,5,6)(H,7,8)/b;2*2-1+

> <PUBCHEM_IUPAC_INCHIKEY>
OQXMMAQEMJUIQM-LVEZLNDCSA-N

> <PUBCHEM_EXACT_MASS>
773.2311140

> <PUBCHEM_MOLECULAR_FORMULA>
C35H40ClN5O13

> <PUBCHEM_MOLECULAR_WEIGHT>
774.2

> <PUBCHEM_OPENEYE_CAN_SMILES>
CN1CCN(CC1)CCOC2=CC3=C(C(=C2)OC4CCOCC4)C(=NC=N3)NC5=C(C=CC6=C5OCO6)Cl.C(=CC(=O)O)C(=O)O.C(=CC(=O)O)C(=O)O

> <PUBCHEM_OPENEYE_ISO_SMILES>
CN1CCN(CC1)CCOC2=CC3=C(C(=NC=N3)NC4=C(C=CC5=C4OCO5)Cl)C(=C2)OC6CCOCC6.C(=C/C(=O)O)\C(=O)O.C(=C/C(=O)O)\C(=O)O

> <PUBCHEM_CACTVS_TPSA>
240

> <PUBCHEM_MONOISOTOPIC_WEIGHT>
773.2311140

> <PUBCHEM_TOTAL_CHARGE>
0

> <PUBCHEM_HEAVY_ATOM_COUNT>
54

> <PUBCHEM_ATOM_DEF_STEREO_COUNT>
0

> <PUBCHEM_ATOM_UDEF_STEREO_COUNT>
0

> <PUBCHEM_BOND_DEF_STEREO_COUNT>
2

> <PUBCHEM_BOND_UDEF_STEREO_COUNT>
0

> <PUBCHEM_ISOTOPIC_ATOM_COUNT>
0

> <PUBCHEM_COMPONENT_COUNT>
3

> <PUBCHEM_CACTVS_TAUTO_COUNT>
-1

> <PUBCHEM_COORDINATE_TYPE>
1
5
255

> <PUBCHEM_BONDANNOTATIONS>
18  36  8
18  40  8
19  38  8
19  40  8
32  34  8
32  35  8
33  35  8
33  37  8
34  36  8
34  38  8
36  37  8
39  41  8
39  42  8
41  43  8
42  44  8
43  45  8
44  45  8

$$$$
46216795
  -OEChem-11282412102D

 88 91  0     0  0  0  0  0  0999 V2000
    8.8101    7.6561    0.0000 O   0  0  0  0  0  0  0  0  0  0  0  0
    8.8256    4.6471    0.0000 O   0  0  0  0  0  0  0  0  0  0  0  0
    2.7690    5.1535    0.0000 O   0  0  0  0  0  0  0  0  0  0  0  0
    9.6917    2.1471    0.0000 O   0  0  0  0  0  0  0  0  0  0  0  0
    4.0010    6.0196    0.0000 O   0  0  0  0  0  0  0  0  0  0  0  0
    3.1350    7.5196    0.0000 O   0  0  0  0  0  0  0  0  0  0  0  0
    0.5369    4.0196    0.0000 O   0  0  0  0  0  0  0  0  0  0  0  0
    0.2690    7.7516    0.0000 O   0  0  0  0  0  0  0  0  0  0  0  0
    2.2690    4.0196    0.0000 O   0  0  0  0  0  0  0  0  0  0  0  0
    0.2690    6.0196    0.0000 O   0  0  0  0  0  0  0  0  0  0  0  0
    7.9248   10.1494    0.0000 N   0  0  0  0  0  0  0  0  0  0  0  0
   11.4237    5.1471    0.0000 N   0  0  0  0  0  0  0  0  0  0  0  0
   12.2897    3.6471    0.0000 N   0  0  0  0  0  0  0  0  0  0  0  0
   13.1558    5.1471    0.0000 N   0  0  0  0  0  0  0  0  0  0  0  0
    8.7292   10.7434    0.0000 C   0  0  0  0  0  0  0  0  0  0  0  0
    7.1113   10.7309    0.0000 C   0  0  0  0  0  0  0  0  0  0  0  0
    8.4129   11.6920    0.0000 C   0  0  0  0  0  0  0  0  0  0  0  0
    7.4129   11.6843    0.0000 C   0  0  0  0  0  0  0  0  0  0  0  0
    7.9325    9.1494    0.0000 C   0  0  0  0  0  0  0  0  0  0  0  0
    8.8024    8.6561    0.0000 C   0  0  0  0  0  0  0  0  0  0  0  0
    9.6799    7.1628    0.0000 C   0  0  0  0  0  0  0  0  0  0  0  0
    9.6917    6.1471    0.0000 C   0  0  0  0  0  0  0  0  0  0  0  0
   10.5577    7.6741    0.0000 C   0  0  0  0  0  0  0  0  0  0  0  0
   10.5577    6.6471    0.0000 C   0  0  0  0  0  0  0  0  0  0  0  0
    9.6917    5.1471    0.0000 C   0  0  0  0  0  0  0  0  0  0  0  0
   11.4237    6.1471    0.0000 C   0  0  0  0  0  0  0  0  0  0  0  0
   11.4355    7.1628    0.0000 C   0  0  0  0  0  0  0  0  0  0  0  0
    2.2690    6.0196    0.0000 C   0  0  0  0  0  0  0  0  0  0  0  0
    1.4030    5.5196    0.0000 C   0  0  0  0  0  0  0  0  0  0  0  0
    1.7690    6.8856    0.0000 C   0  0  0  0  0  0  0  0  0  0  0  0
    8.8256    3.6471    0.0000 C   0  0  0  0  0  0  0  0  0  0  0  0
   12.2897    4.6471    0.0000 C   0  0  0  0  0  0  0  0  0  0  0  0
    3.1350    6.5196    0.0000 C   0  0  0  0  0  0  0  0  0  0  0  0
   13.1558    3.1471    0.0000 C   0  0  0  0  0  0  0  0  0  0  0  0
    7.9596    3.1471    0.0000 C   0  0  0  0  0  0  0  0  0  0  0  0
   13.1558    2.1471    0.0000 C   0  0  0  0  0  0  0  0  0  0  0  0
    1.4030    4.5196    0.0000 C   0  0  0  0  0  0  0  0  0  0  0  0
    0.7690    6.8856    0.0000 C   0  0  0  0  0  0  0  0  0  0  0  0
   11.4237    2.1471    0.0000 C   0  0  0  0  0  0  0  0  0  0  0  0
   12.2897    1.6471    0.0000 C   0  0  0  0  0  0  0  0  0  0  0  0
   10.5577    1.6471    0.0000 C   0  0  0  0  0  0  0  0  0  0  0  0
   14.0218    3.6471    0.0000 C   0  0  0  0  0  0  0  0  0  0  0  0
    7.9596    2.1471    0.0000 C   0  0  0  0  0  0  0  0  0  0  0  0
   13.1675    1.1313    0.0000 C   0  0  0  0  0  0  0  0  0  0  0  0
    8.8256    1.6471    0.0000 C   0  0  0  0  0  0  0  0  0  0  0  0
   11.4120    1.1313    0.0000 C   0  0  0  0  0  0  0  0  0  0  0  0
   14.0218    4.6471    0.0000 C   0  0  0  0  0  0  0  0  0  0  0  0
   12.2897    0.6200    0.0000 C   0  0  0  0  0  0  0  0  0  0  0  0
    9.0434   10.2089    0.0000 H   0  0  0  0  0  0  0  0  0  0  0  0
    9.2937   10.9999    0.0000 H   0  0  0  0  0  0  0  0  0  0  0  0
    6.5429   10.9787    0.0000 H   0  0  0  0  0  0  0  0  0  0  0  0
    6.8054   10.1916    0.0000 H   0  0  0  0  0  0  0  0  0  0  0  0
    9.0184   11.8256    0.0000 H   0  0  0  0  0  0  0  0  0  0  0  0
    8.3433   12.3081    0.0000 H   0  0  0  0  0  0  0  0  0  0  0  0
    7.4730   12.3014    0.0000 H   0  0  0  0  0  0  0  0  0  0  0  0
    6.8055   11.8086    0.0000 H   0  0  0  0  0  0  0  0  0  0  0  0
    7.3211    9.2524    0.0000 H   0  0  0  0  0  0  0  0  0  0  0  0
    7.7249    8.5652    0.0000 H   0  0  0  0  0  0  0  0  0  0  0  0
    9.4138    8.5532    0.0000 H   0  0  0  0  0  0  0  0  0  0  0  0
    9.0099    9.2403    0.0000 H   0  0  0  0  0  0  0  0  0  0  0  0
   10.5577    8.2941    0.0000 H   0  0  0  0  0  0  0  0  0  0  0  0
   10.5577    7.2671    0.0000 H   0  0  0  0  0  0  0  0  0  0  0  0
    9.9037    4.5645    0.0000 H   0  0  0  0  0  0  0  0  0  0  0  0
   10.3022    5.2547    0.0000 H   0  0  0  0  0  0  0  0  0  0  0  0
   11.9748    7.4687    0.0000 H   0  0  0  0  0  0  0  0  0  0  0  0
   10.8868    4.8371    0.0000 H   0  0  0  0  0  0  0  0  0  0  0  0
    1.1909    6.1022    0.0000 H   0  0  0  0  0  0  0  0  0  0  0  0
    0.7924    5.4119    0.0000 H   0  0  0  0  0  0  0  0  0  0  0  0
    2.3516    7.0976    0.0000 H   0  0  0  0  0  0  0  0  0  0  0  0
    1.6613    7.4962    0.0000 H   0  0  0  0  0  0  0  0  0  0  0  0
    9.0377    3.0645    0.0000 H   0  0  0  0  0  0  0  0  0  0  0  0
    9.4362    3.7547    0.0000 H   0  0  0  0  0  0  0  0  0  0  0  0
    2.4590    4.6166    0.0000 H   0  0  0  0  0  0  0  0  0  0  0  0
    7.4227    3.4571    0.0000 H   0  0  0  0  0  0  0  0  0  0  0  0
   12.2897    1.0271    0.0000 H   0  0  0  0  0  0  0  0  0  0  0  0
   10.1592    1.1721    0.0000 H   0  0  0  0  0  0  0  0  0  0  0  0
   10.9562    1.1721    0.0000 H   0  0  0  0  0  0  0  0  0  0  0  0
   14.5587    3.3371    0.0000 H   0  0  0  0  0  0  0  0  0  0  0  0
    7.4227    1.8371    0.0000 H   0  0  0  0  0  0  0  0  0  0  0  0
   13.7068    0.8255    0.0000 H   0  0  0  0  0  0  0  0  0  0  0  0
    8.4271    1.1721    0.0000 H   0  0  0  0  0  0  0  0  0  0  0  0
    9.2242    1.1721    0.0000 H   0  0  0  0  0  0  0  0  0  0  0  0
   10.8727    0.8255    0.0000 H   0  0  0  0  0  0  0  0  0  0  0  0
   14.5587    4.9571    0.0000 H   0  0  0  0  0  0  0  0  0  0  0  0
   12.2897    0.0000    0.0000 H   0  0  0  0  0  0  0  0  0  0  0  0
    4.5380    6.3296    0.0000 H   0  0  0  0  0  0  0  0  0  0  0  0
    0.0000    4.3296    0.0000 H   0  0  0  0  0  0  0  0  0  0  0  0
    0.5790    8.2886    0.0000 H   0  0  0  0  0  0  0  0  0  0  0  0
  1 20  1  0  0  0  0
  1 21  1  0  0  0  0
  2 25  1  0  0  0  0
  2 31  1  0  0  0  0
  3 28  1  0  0  0  0
  3 73  1  0  0  0  0
  4 41  1  0  0  0  0
  4 45  1  0  0  0  0
  5 33  1  0  0  0  0
  5 86  1  0  0  0  0
  6 33  2  0  0  0  0
  7 37  1  0  0  0  0
  7 87  1  0  0  0  0
  8 38  1  0  0  0  0
  8 88  1  0  0  0  0
  9 37  2  0  0  0  0
 10 38  2  0  0  0  0
 11 15  1  0  0  0  0
 11 16  1  0  0  0  0
 11 19  1  0  0  0  0
 12 26  1  0  0  0  0
 12 32  1  0  0  0  0
 12 66  1  0  0  0  0
 13 32  1  0  0  0  0
 13 34  2  0  0  0  0
 14 32  2  0  0  0  0
 14 47  1  0  0  0  0
 15 17  1  0  0  0  0
 15 49  1  0  0  0  0
 15 50  1  0  0  0  0
 16 18  1  0  0  0  0
 16 51  1  0  0  0  0
 16 52  1  0  0  0  0
 17 18  1  0  0  0  0
 17 53  1  0  0  0  0
 17 54  1  0  0  0  0
 18 55  1  0  0  0  0
 18 56  1  0  0  0  0
 19 20  1  0  0  0  0
 19 57  1  0  0  0  0
 19 58  1  0  0  0  0
 20 59  1  0  0  0  0
 20 60  1  0  0  0  0
 21 22  2  0  0  0  0
 21 23  1  0  0  0  0
 22 24  1  0  0  0  0
 22 25  1  0  0  0  0
 23 27  2  0  0  0  0
 23 61  1  0  0  0  0
 24 26  2  0  0  0  0
 24 62  1  0  0  0  0
 25 63  1  0  0  0  0
 25 64  1  0  0  0  0
 26 27  1  0  0  0  0
 27 65  1  0  0  0  0
 28 29  1  0  0  0  0
 28 30  1  0  0  0  0
 28 33  1  0  0  0  0
 29 37  1  0  0  0  0
 29 67  1  0  0  0  0
 29 68  1  0  0  0  0
 30 38  1  0  0  0  0
 30 69  1  0  0  0  0
 30 70  1  0  0  0  0
 31 35  1  0  0  0  0
 31 71  1  0  0  0  0
 31 72  1  0  0  0  0
 34 36  1  0  0  0  0
 34 42  1  0  0  0  0
 35 43  2  0  0  0  0
 35 74  1  0  0  0  0
 36 40  1  0  0  0  0
 36 44  2  0  0  0  0
 39 40  2  0  0  0  0
 39 41  1  0  0  0  0
 39 46  1  0  0  0  0
 40 75  1  0  0  0  0
 41 76  1  0  0  0  0
 41 77  1  0  0  0  0
 42 47  2  0  0  0  0
 42 78  1  0  0  0  0
 43 45  1  0  0  0  0
 43 79  1  0  0  0  0
 44 48  1  0  0  0  0
 44 80  1  0  0  0  0
 45 81  1  0  0  0  0
 45 82  1  0  0  0  0
 46 48  2  0  0  0  0
 46 83  1  0  0  0  0
 47 84  1  0  0  0  0
 48 85  1  0  0  0  0
M  END
> <PUBCHEM_COMPOUND_CID>
46216795

> <PUBCHEM_COMPOUND_CANONICALIZED>
1

> <PUBCHEM_CACTVS_COMPLEXITY>
871

> <PUBCHEM_CACTVS_HBOND_ACCEPTOR>
14

> <PUBCHEM_CACTVS_HBOND_DONOR>
5

> <PUBCHEM_CACTVS_ROTATABLE_BOND>
9

> <PUBCHEM_CACTVS_SUBSKEYS>
AAADcfB/vAAAAAAAAAAAAAAAAAAAAWAAAAA8YIAAAAAAAAAB0AAAHgAQCAAADEzhngY93pfIFgCoAzT3bAKCiCkxIqAJ2CF+bJiPL7bE+duHfCjt8BPZ6Cf79uMOAEACQAAIAAAAgASAABAAAAAAAAAAAA==

> <PUBCHEM_IUPAC_OPENEYE_NAME>
citric acid;(16E)-11-(2-pyrrolidin-1-ylethoxy)-14,19-dioxa-5,7,27-triazatetracyclo[19.3.1.12,6.18,12]heptacosa-1(24),2(27),3,5,8(26),9,11,16,21(25),22-decaene

> <PUBCHEM_IUPAC_CAS_NAME>
2-hydroxypropane-1,2,3-tricarboxylic acid;(16E)-11-[2-(1-pyrrolidinyl)ethoxy]-14,19-dioxa-5,7,27-triazatetracyclo[19.3.1.12,6.18,12]heptacosa-1(24),2(27),3,5,8(26),9,11,16,21(25),22-decaene

> <PUBCHEM_IUPAC_NAME_MARKUP>
2-hydroxypropane-1,2,3-tricarboxylic acid;(16<I>E</I>)-11-(2-pyrrolidin-1-ylethoxy)-14,19-dioxa-5,7,27-triazatetracyclo[19.3.1.1<SUP>2,6</SUP>.1<SUP>8,12</SUP>]heptacosa-1(24),2(27),3,5,8(26),9,11,16,21(25),22-decaene

> <PUBCHEM_IUPAC_NAME>
2-hydroxypropane-1,2,3-tricarboxylic acid;(16E)-11-(2-pyrrolidin-1-ylethoxy)-14,19-dioxa-5,7,27-triazatetracyclo[19.3.1.12,6.18,12]heptacosa-1(24),2(27),3,5,8(26),9,11,16,21(25),22-decaene

> <PUBCHEM_IUPAC_SYSTEMATIC_NAME>
2-oxidanylpropane-1,2,3-tricarboxylic acid;(16E)-11-(2-pyrrolidin-1-ylethoxy)-14,19-dioxa-5,7,27-triazatetracyclo[19.3.1.12,6.18,12]heptacosa-1(24),2(27),3,5,8(26),9,11,16,21(25),22-decaene

> <PUBCHEM_IUPAC_TRADITIONAL_NAME>
citric acid;(16E)-11-(2-pyrrolidinoethoxy)-14,19-dioxa-5,7,27-triazatetracyclo[19.3.1.12,6.18,12]heptacosa-1(24),2(27),3,5,8(26),9,11,16,21(25),22-decaene

> <PUBCHEM_IUPAC_INCHI>
InChI=1S/C28H32N4O3.C6H8O7/c1-2-13-32(12-1)14-17-35-27-9-8-25-19-24(27)21-34-16-4-3-15-33-20-22-6-5-7-23(18-22)26-10-11-29-28(30-25)31-26;7-3(8)1-6(13,5(11)12)2-4(9)10/h3-11,18-19H,1-2,12-17,20-21H2,(H,29,30,31);13H,1-2H2,(H,7,8)(H,9,10)(H,11,12)/b4-3+;

> <PUBCHEM_IUPAC_INCHIKEY>
BAHHBHSHSRTKNK-BJILWQEISA-N

> <PUBCHEM_EXACT_MASS>
664.27444349

> <PUBCHEM_MOLECULAR_FORMULA>
C34H40N4O10

> <PUBCHEM_MOLECULAR_WEIGHT>
664.7

> <PUBCHEM_OPENEYE_CAN_SMILES>
C1CCN(C1)CCOC2=C3COCC=CCOCC4=CC(=CC=C4)C5=NC(=NC=C5)NC(=C3)C=C2.C(C(=O)O)C(CC(=O)O)(C(=O)O)O

> <PUBCHEM_OPENEYE_ISO_SMILES>
C1CCN(C1)CCOC2=C3COC/C=C/COCC4=CC(=CC=C4)C5=NC(=NC=C5)NC(=C3)C=C2.C(C(=O)O)C(CC(=O)O)(C(=O)O)O

> <PUBCHEM_CACTVS_TPSA>
201

> <PUBCHEM_MONOISOTOPIC_WEIGHT>
664.27444349

> <PUBCHEM_TOTAL_CHARGE>
0

> <PUBCHEM_HEAVY_ATOM_COUNT>
48

> <PUBCHEM_ATOM_DEF_STEREO_COUNT>
0

> <PUBCHEM_ATOM_UDEF_STEREO_COUNT>
0

> <PUBCHEM_BOND_DEF_STEREO_COUNT>
1

> <PUBCHEM_BOND_UDEF_STEREO_COUNT>
0

> <PUBCHEM_ISOTOPIC_ATOM_COUNT>
0

> <PUBCHEM_COMPONENT_COUNT>
2

> <PUBCHEM_CACTVS_TAUTO_COUNT>
-1

> <PUBCHEM_COORDINATE_TYPE>
1
5
255

> <PUBCHEM_BONDANNOTATIONS>
13  32  8
13  34  8
14  32  8
14  47  8
21  22  8
21  23  8
22  24  8
23  27  8
24  26  8
26  27  8
34  42  8
36  40  8
36  44  8
39  40  8
39  46  8
42  47  8
44  48  8
46  48  8

$$$$
46851625
  -OEChem-11282412102D

 47 50  0     0  0  0  0  0  0999 V2000
    2.0000   -1.0000    0.0000 F   0  0  0  0  0  0  0  0  0  0  0  0
   12.4725   -0.8047    0.0000 O   0  0  0  0  0  0  0  0  0  0  0  0
    2.0000    1.0000    0.0000 O   0  0  0  0  0  0  0  0  0  0  0  0
   14.0561    0.0000    0.0000 O   0  0  0  0  0  0  0  0  0  0  0  0
    8.9282    1.0000    0.0000 N   0  0  0  0  0  0  0  0  0  0  0  0
   12.4725    0.8047    0.0000 N   0  0  0  0  0  0  0  0  0  0  0  0
    5.4641    1.0000    0.0000 N   0  0  0  0  0  0  0  0  0  0  0  0
    7.1962    1.0000    0.0000 N   0  0  0  0  0  0  0  0  0  0  0  0
    6.3301   -0.5000    0.0000 N   0  0  0  0  0  0  0  0  0  0  0  0
    9.7942    0.5000    0.0000 C   0  0  0  0  0  0  0  0  0  0  0  0
   11.5263    0.5000    0.0000 C   0  0  0  0  0  0  0  0  0  0  0  0
   11.5263   -0.5000    0.0000 C   0  0  0  0  0  0  0  0  0  0  0  0
   10.6603    1.0000    0.0000 C   0  0  0  0  0  0  0  0  0  0  0  0
    8.0622    0.5000    0.0000 C   0  0  0  0  0  0  0  0  0  0  0  0
    9.7942   -0.5000    0.0000 C   0  0  0  0  0  0  0  0  0  0  0  0
    4.5981    0.5000    0.0000 C   0  0  0  0  0  0  0  0  0  0  0  0
    8.0622   -0.5000    0.0000 C   0  0  0  0  0  0  0  0  0  0  0  0
   10.6603   -1.0000    0.0000 C   0  0  0  0  0  0  0  0  0  0  0  0
    3.7320   -1.0000    0.0000 C   0  0  0  0  0  0  0  0  0  0  0  0
    6.3301    0.5000    0.0000 C   0  0  0  0  0  0  0  0  0  0  0  0
    4.5981   -0.5000    0.0000 C   0  0  0  0  0  0  0  0  0  0  0  0
    3.7320    1.0000    0.0000 C   0  0  0  0  0  0  0  0  0  0  0  0
    2.8660    0.5000    0.0000 C   0  0  0  0  0  0  0  0  0  0  0  0
    2.8660   -0.5000    0.0000 C   0  0  0  0  0  0  0  0  0  0  0  0
    7.1962   -1.0000    0.0000 C   0  0  0  0  0  0  0  0  0  0  0  0
   13.0561    0.0000    0.0000 C   0  0  0  0  0  0  0  0  0  0  0  0
    8.9282   -1.0000    0.0000 C   0  0  0  0  0  0  0  0  0  0  0  0
    3.7320   -2.0000    0.0000 C   0  0  0  0  0  0  0  0  0  0  0  0
    2.0000    2.0000    0.0000 C   0  0  0  0  0  0  0  0  0  0  0  0
   10.6603    1.6200    0.0000 H   0  0  0  0  0  0  0  0  0  0  0  0
    8.9282    1.6200    0.0000 H   0  0  0  0  0  0  0  0  0  0  0  0
    9.2573   -0.8100    0.0000 H   0  0  0  0  0  0  0  0  0  0  0  0
   10.6603   -1.6200    0.0000 H   0  0  0  0  0  0  0  0  0  0  0  0
   12.6651    1.3940    0.0000 H   0  0  0  0  0  0  0  0  0  0  0  0
    5.1350   -0.8100    0.0000 H   0  0  0  0  0  0  0  0  0  0  0  0
    5.4641    1.6200    0.0000 H   0  0  0  0  0  0  0  0  0  0  0  0
    3.7320    1.6200    0.0000 H   0  0  0  0  0  0  0  0  0  0  0  0
    7.1962   -1.6200    0.0000 H   0  0  0  0  0  0  0  0  0  0  0  0
    8.6182   -1.5369    0.0000 H   0  0  0  0  0  0  0  0  0  0  0  0
    9.4651   -1.3100    0.0000 H   0  0  0  0  0  0  0  0  0  0  0  0
    9.2382   -0.4631    0.0000 H   0  0  0  0  0  0  0  0  0  0  0  0
    3.1120   -2.0000    0.0000 H   0  0  0  0  0  0  0  0  0  0  0  0
    3.7320   -2.6200    0.0000 H   0  0  0  0  0  0  0  0  0  0  0  0
    4.3520   -2.0000    0.0000 H   0  0  0  0  0  0  0  0  0  0  0  0
    2.6200    2.0000    0.0000 H   0  0  0  0  0  0  0  0  0  0  0  0
    2.0000    2.6200    0.0000 H   0  0  0  0  0  0  0  0  0  0  0  0
    1.3800    2.0000    0.0000 H   0  0  0  0  0  0  0  0  0  0  0  0
  1 24  1  0  0  0  0
  2 12  1  0  0  0  0
  2 26  1  0  0  0  0
  3 23  1  0  0  0  0
  3 29  1  0  0  0  0
  4 26  2  0  0  0  0
  5 10  1  0  0  0  0
  5 14  1  0  0  0  0
  5 31  1  0  0  0  0
  6 11  1  0  0  0  0
  6 26  1  0  0  0  0
  6 34  1  0  0  0  0
  7 16  1  0  0  0  0
  7 20  1  0  0  0  0
  7 36  1  0  0  0  0
  8 14  2  0  0  0  0
  8 20  1  0  0  0  0
  9 20  2  0  0  0  0
  9 25  1  0  0  0  0
 10 13  2  0  0  0  0
 10 15  1  0  0  0  0
 11 12  2  0  0  0  0
 11 13  1  0  0  0  0
 12 18  1  0  0  0  0
 13 30  1  0  0  0  0
 14 17  1  0  0  0  0
 15 18  2  0  0  0  0
 15 32  1  0  0  0  0
 16 21  1  0  0  0  0
 16 22  2  0  0  0  0
 17 25  2  0  0  0  0
 17 27  1  0  0  0  0
 18 33  1  0  0  0  0
 19 21  2  0  0  0  0
 19 24  1  0  0  0  0
 19 28  1  0  0  0  0
 21 35  1  0  0  0  0
 22 23  1  0  0  0  0
 22 37  1  0  0  0  0
 23 24  2  0  0  0  0
 25 38  1  0  0  0  0
 27 39  1  0  0  0  0
 27 40  1  0  0  0  0
 27 41  1  0  0  0  0
 28 42  1  0  0  0  0
 28 43  1  0  0  0  0
 28 44  1  0  0  0  0
 29 45  1  0  0  0  0
 29 46  1  0  0  0  0
 29 47  1  0  0  0  0
M  END
> <PUBCHEM_COMPOUND_CID>
46851625

> <PUBCHEM_COMPOUND_CANONICALIZED>
1

> <PUBCHEM_CACTVS_COMPLEXITY>
584

> <PUBCHEM_CACTVS_HBOND_ACCEPTOR>
8

> <PUBCHEM_CACTVS_HBOND_DONOR>
3

> <PUBCHEM_CACTVS_ROTATABLE_BOND>
5

> <PUBCHEM_CACTVS_SUBSKEYS>
AAADceB7sQAAAAAAAAAAAAAAAAAAAWAAAAA8YIAAAAAAAFgB0AAAHwAQAAAADAzBmg4//pbIFACoAjZnfACCiCkxIqAJ2CAvbJmOLuLE+duNNihu1BvY6Cew0BMOAEABQgQAEAAAgAKECAAgAAAAAAAAAA==

> <PUBCHEM_IUPAC_OPENEYE_NAME>
5-[[2-(4-fluoro-3-methoxy-5-methyl-anilino)-5-methyl-pyrimidin-4-yl]amino]-3H-1,3-benzoxazol-2-one

> <PUBCHEM_IUPAC_CAS_NAME>
5-[[2-(4-fluoro-3-methoxy-5-methylanilino)-5-methyl-4-pyrimidinyl]amino]-3H-1,3-benzoxazol-2-one

> <PUBCHEM_IUPAC_NAME_MARKUP>
5-[[2-(4-fluoro-3-methoxy-5-methylanilino)-5-methylpyrimidin-4-yl]amino]-3<I>H</I>-1,3-benzoxazol-2-one

> <PUBCHEM_IUPAC_NAME>
5-[[2-(4-fluoro-3-methoxy-5-methylanilino)-5-methylpyrimidin-4-yl]amino]-3H-1,3-benzoxazol-2-one

> <PUBCHEM_IUPAC_SYSTEMATIC_NAME>
5-[[2-[(4-fluoranyl-3-methoxy-5-methyl-phenyl)amino]-5-methyl-pyrimidin-4-yl]amino]-3H-1,3-benzoxazol-2-one

> <PUBCHEM_IUPAC_TRADITIONAL_NAME>
5-[[2-(4-fluoro-3-methoxy-5-methyl-anilino)-5-methyl-pyrimidin-4-yl]amino]-3H-1,3-benzoxazol-2-one

> <PUBCHEM_IUPAC_INCHI>
InChI=1S/C20H18FN5O3/c1-10-6-13(8-16(28-3)17(10)21)24-19-22-9-11(2)18(26-19)23-12-4-5-15-14(7-12)25-20(27)29-15/h4-9H,1-3H3,(H,25,27)(H2,22,23,24,26)

> <PUBCHEM_IUPAC_INCHIKEY>
OYFMQDVLFYKOPZ-UHFFFAOYSA-N

> <PUBCHEM_XLOGP3_AA>
4

> <PUBCHEM_EXACT_MASS>
395.13936762

> <PUBCHEM_MOLECULAR_FORMULA>
C20H18FN5O3

> <PUBCHEM_MOLECULAR_WEIGHT>
395.4

> <PUBCHEM_OPENEYE_CAN_SMILES>
CC1=CC(=CC(=C1F)OC)NC2=NC=C(C(=N2)NC3=CC4=C(C=C3)OC(=O)N4)C

> <PUBCHEM_OPENEYE_ISO_SMILES>
CC1=CC(=CC(=C1F)OC)NC2=NC=C(C(=N2)NC3=CC4=C(C=C3)OC(=O)N4)C

> <PUBCHEM_CACTVS_TPSA>
97.4

> <PUBCHEM_MONOISOTOPIC_WEIGHT>
395.13936762

> <PUBCHEM_TOTAL_CHARGE>
0

> <PUBCHEM_HEAVY_ATOM_COUNT>
29

> <PUBCHEM_ATOM_DEF_STEREO_COUNT>
0

> <PUBCHEM_ATOM_UDEF_STEREO_COUNT>
0

> <PUBCHEM_BOND_DEF_STEREO_COUNT>
0

> <PUBCHEM_BOND_UDEF_STEREO_COUNT>
0

> <PUBCHEM_ISOTOPIC_ATOM_COUNT>
0

> <PUBCHEM_COMPONENT_COUNT>
1

> <PUBCHEM_CACTVS_TAUTO_COUNT>
-1

> <PUBCHEM_COORDINATE_TYPE>
1
5
255

> <PUBCHEM_BONDANNOTATIONS>
10  13  8
10  15  8
11  12  8
11  13  8
12  18  8
14  17  8
15  18  8
16  21  8
16  22  8
17  25  8
19  21  8
19  24  8
2  12  8
2  26  8
22  23  8
23  24  8
6  11  8
6  26  8
8  14  8
8  20  8
9  20  8
9  25  8

$$$$
46910592
  -OEChem-11282412102D

 79 82  0     0  0  0  0  0  0999 V2000
    8.3312    1.0369    0.0000 S   0  0  0  0  0  0  0  0  0  0  0  0
    5.7331   11.5230    0.0000 F   0  0  0  0  0  0  0  0  0  0  0  0
    6.7331   10.5230    0.0000 F   0  0  0  0  0  0  0  0  0  0  0  0
    4.7331   10.5230    0.0000 F   0  0  0  0  0  0  0  0  0  0  0  0
    8.3312    8.0230    0.0000 O   0  0  0  0  0  0  0  0  0  0  0  0
    9.1972    1.5369    0.0000 O   0  0  0  0  0  0  0  0  0  0  0  0
    7.8312    1.9030    0.0000 O   0  0  0  0  0  0  0  0  0  0  0  0
    8.8312    0.1709    0.0000 O   0  0  0  0  0  0  0  0  0  0  0  0
    3.1350    9.0230    0.0000 N   0  0  0  0  0  0  0  0  0  0  0  0
    1.4030    8.0230    0.0000 N   0  0  0  0  0  0  0  0  0  0  0  0
    7.4651    6.5230    0.0000 N   0  0  0  0  0  0  0  0  0  0  0  0
    9.1972    4.5230    0.0000 N   0  0  0  0  0  0  0  0  0  0  0  0
   10.9292    6.5230    0.0000 N   0  0  0  0  0  0  0  0  0  0  0  0
   12.6613    6.5230    0.0000 N   0  0  0  0  0  0  0  0  0  0  0  0
   11.7953    5.0230    0.0000 N   0  0  0  0  0  0  0  0  0  0  0  0
   16.1254    6.5230    0.0000 N   0  0  0  0  0  0  0  0  0  0  0  0
    2.2690    9.5230    0.0000 C   0  0  0  0  0  0  0  0  0  0  0  0
    3.1350    8.0230    0.0000 C   0  0  0  0  0  0  0  0  0  0  0  0
    1.4030    9.0230    0.0000 C   0  0  0  0  0  0  0  0  0  0  0  0
    2.2690    7.5230    0.0000 C   0  0  0  0  0  0  0  0  0  0  0  0
    4.0010    9.5230    0.0000 C   0  0  0  0  0  0  0  0  0  0  0  0
    4.8671    9.0230    0.0000 C   0  0  0  0  0  0  0  0  0  0  0  0
    0.5369    7.5230    0.0000 C   0  0  0  0  0  0  0  0  0  0  0  0
    5.7331    9.5230    0.0000 C   0  0  0  0  0  0  0  0  0  0  0  0
    4.8671    8.0230    0.0000 C   0  0  0  0  0  0  0  0  0  0  0  0
    6.5991    9.0230    0.0000 C   0  0  0  0  0  0  0  0  0  0  0  0
    5.7331    7.5230    0.0000 C   0  0  0  0  0  0  0  0  0  0  0  0
    6.5991    8.0230    0.0000 C   0  0  0  0  0  0  0  0  0  0  0  0
    5.7331   10.5230    0.0000 C   0  0  0  0  0  0  0  0  0  0  0  0
    7.4651    7.5230    0.0000 C   0  0  0  0  0  0  0  0  0  0  0  0
    8.3312    6.0230    0.0000 C   0  0  0  0  0  0  0  0  0  0  0  0
    9.1972    6.5230    0.0000 C   0  0  0  0  0  0  0  0  0  0  0  0
   10.0632    6.0230    0.0000 C   0  0  0  0  0  0  0  0  0  0  0  0
    8.3312    5.0230    0.0000 C   0  0  0  0  0  0  0  0  0  0  0  0
   10.0632    5.0230    0.0000 C   0  0  0  0  0  0  0  0  0  0  0  0
   10.9292    4.5230    0.0000 C   0  0  0  0  0  0  0  0  0  0  0  0
   11.7953    6.0230    0.0000 C   0  0  0  0  0  0  0  0  0  0  0  0
   13.5273    6.0230    0.0000 C   0  0  0  0  0  0  0  0  0  0  0  0
   14.3933    6.5230    0.0000 C   0  0  0  0  0  0  0  0  0  0  0  0
   13.5273    5.0230    0.0000 C   0  0  0  0  0  0  0  0  0  0  0  0
   12.6613    4.5230    0.0000 C   0  0  0  0  0  0  0  0  0  0  0  0
   14.3933    7.5230    0.0000 C   0  0  0  0  0  0  0  0  0  0  0  0
   15.2594    6.0230    0.0000 C   0  0  0  0  0  0  0  0  0  0  0  0
   15.2594    8.0230    0.0000 C   0  0  0  0  0  0  0  0  0  0  0  0
   16.1254    7.5230    0.0000 C   0  0  0  0  0  0  0  0  0  0  0  0
    7.4651    0.5369    0.0000 C   0  0  0  0  0  0  0  0  0  0  0  0
    2.6675    9.9979    0.0000 H   0  0  0  0  0  0  0  0  0  0  0  0
    1.8705    9.9979    0.0000 H   0  0  0  0  0  0  0  0  0  0  0  0
    3.3471    7.4404    0.0000 H   0  0  0  0  0  0  0  0  0  0  0  0
    3.7456    8.1306    0.0000 H   0  0  0  0  0  0  0  0  0  0  0  0
    1.1909    9.6056    0.0000 H   0  0  0  0  0  0  0  0  0  0  0  0
    0.7924    8.9153    0.0000 H   0  0  0  0  0  0  0  0  0  0  0  0
    1.8705    7.0480    0.0000 H   0  0  0  0  0  0  0  0  0  0  0  0
    2.6675    7.0480    0.0000 H   0  0  0  0  0  0  0  0  0  0  0  0
    4.3996    9.9979    0.0000 H   0  0  0  0  0  0  0  0  0  0  0  0
    3.6025    9.9979    0.0000 H   0  0  0  0  0  0  0  0  0  0  0  0
    0.2269    8.0599    0.0000 H   0  0  0  0  0  0  0  0  0  0  0  0
    0.0000    7.2130    0.0000 H   0  0  0  0  0  0  0  0  0  0  0  0
    0.8469    6.9860    0.0000 H   0  0  0  0  0  0  0  0  0  0  0  0
    4.3301    7.7130    0.0000 H   0  0  0  0  0  0  0  0  0  0  0  0
    7.1360    9.3330    0.0000 H   0  0  0  0  0  0  0  0  0  0  0  0
    5.7331    6.9030    0.0000 H   0  0  0  0  0  0  0  0  0  0  0  0
    6.9282    6.2130    0.0000 H   0  0  0  0  0  0  0  0  0  0  0  0
    9.1972    7.1430    0.0000 H   0  0  0  0  0  0  0  0  0  0  0  0
    7.7942    4.7130    0.0000 H   0  0  0  0  0  0  0  0  0  0  0  0
   10.9292    7.1430    0.0000 H   0  0  0  0  0  0  0  0  0  0  0  0
   10.6192    3.9860    0.0000 H   0  0  0  0  0  0  0  0  0  0  0  0
   11.4662    4.2130    0.0000 H   0  0  0  0  0  0  0  0  0  0  0  0
   11.2392    5.0599    0.0000 H   0  0  0  0  0  0  0  0  0  0  0  0
   14.0643    4.7130    0.0000 H   0  0  0  0  0  0  0  0  0  0  0  0
   12.6613    3.9030    0.0000 H   0  0  0  0  0  0  0  0  0  0  0  0
   13.8564    7.8330    0.0000 H   0  0  0  0  0  0  0  0  0  0  0  0
   15.2594    5.4030    0.0000 H   0  0  0  0  0  0  0  0  0  0  0  0
   15.2594    8.6430    0.0000 H   0  0  0  0  0  0  0  0  0  0  0  0
   16.6623    7.8330    0.0000 H   0  0  0  0  0  0  0  0  0  0  0  0
    7.1551    1.0739    0.0000 H   0  0  0  0  0  0  0  0  0  0  0  0
    6.9282    0.2269    0.0000 H   0  0  0  0  0  0  0  0  0  0  0  0
    7.7751    0.0000    0.0000 H   0  0  0  0  0  0  0  0  0  0  0  0
    9.7341    1.2269    0.0000 H   0  0  0  0  0  0  0  0  0  0  0  0
  1  6  1  0  0  0  0
  1  7  2  0  0  0  0
  1  8  2  0  0  0  0
  1 46  1  0  0  0  0
  2 29  1  0  0  0  0
  3 29  1  0  0  0  0
  4 29  1  0  0  0  0
  5 30  2  0  0  0  0
  6 79  1  0  0  0  0
  9 17  1  0  0  0  0
  9 18  1  0  0  0  0
  9 21  1  0  0  0  0
 10 19  1  0  0  0  0
 10 20  1  0  0  0  0
 10 23  1  0  0  0  0
 11 30  1  0  0  0  0
 11 31  1  0  0  0  0
 11 63  1  0  0  0  0
 12 34  2  0  0  0  0
 12 35  1  0  0  0  0
 13 33  1  0  0  0  0
 13 37  1  0  0  0  0
 13 66  1  0  0  0  0
 14 37  1  0  0  0  0
 14 38  2  0  0  0  0
 15 37  2  0  0  0  0
 15 41  1  0  0  0  0
 16 43  1  0  0  0  0
 16 45  2  0  0  0  0
 17 19  1  0  0  0  0
 17 47  1  0  0  0  0
 17 48  1  0  0  0  0
 18 20  1  0  0  0  0
 18 49  1  0  0  0  0
 18 50  1  0  0  0  0
 19 51  1  0  0  0  0
 19 52  1  0  0  0  0
 20 53  1  0  0  0  0
 20 54  1  0  0  0  0
 21 22  1  0  0  0  0
 21 55  1  0  0  0  0
 21 56  1  0  0  0  0
 22 24  2  0  0  0  0
 22 25  1  0  0  0  0
 23 57  1  0  0  0  0
 23 58  1  0  0  0  0
 23 59  1  0  0  0  0
 24 26  1  0  0  0  0
 24 29  1  0  0  0  0
 25 27  2  0  0  0  0
 25 60  1  0  0  0  0
 26 28  2  0  0  0  0
 26 61  1  0  0  0  0
 27 28  1  0  0  0  0
 27 62  1  0  0  0  0
 28 30  1  0  0  0  0
 31 32  2  0  0  0  0
 31 34  1  0  0  0  0
 32 33  1  0  0  0  0
 32 64  1  0  0  0  0
 33 35  2  0  0  0  0
 34 65  1  0  0  0  0
 35 36  1  0  0  0  0
 36 67  1  0  0  0  0
 36 68  1  0  0  0  0
 36 69  1  0  0  0  0
 38 39  1  0  0  0  0
 38 40  1  0  0  0  0
 39 42  1  0  0  0  0
 39 43  2  0  0  0  0
 40 41  2  0  0  0  0
 40 70  1  0  0  0  0
 41 71  1  0  0  0  0
 42 44  2  0  0  0  0
 42 72  1  0  0  0  0
 43 73  1  0  0  0  0
 44 45  1  0  0  0  0
 44 74  1  0  0  0  0
 45 75  1  0  0  0  0
 46 76  1  0  0  0  0
 46 77  1  0  0  0  0
 46 78  1  0  0  0  0
M  END
> <PUBCHEM_COMPOUND_CID>
46910592

> <PUBCHEM_COMPOUND_CANONICALIZED>
1

> <PUBCHEM_CACTVS_COMPLEXITY>
934

> <PUBCHEM_CACTVS_HBOND_ACCEPTOR>
14

> <PUBCHEM_CACTVS_HBOND_DONOR>
3

> <PUBCHEM_CACTVS_ROTATABLE_BOND>
7

> <PUBCHEM_CACTVS_SUBSKEYS>
AAADcfB7+YBAAAAAAAAAAAAAAAAAAAAAAAA8WLFiAAAAAAAB/AAAHwQQCAAADAjBnhS/0JfIEIKoAzV3dHCCgCk1EqAJ2CE4dNiIaPLA3dGUJQholALIyacYiMCOwAACAAAQAACAAAQAACAAAAAAAAAAAA==

> <PUBCHEM_IUPAC_OPENEYE_NAME>
methanesulfonic acid;4-[(4-methylpiperazin-1-yl)methyl]-N-[6-methyl-5-[[4-(3-pyridyl)pyrimidin-2-yl]amino]-3-pyridyl]-3-(trifluoromethyl)benzamide

> <PUBCHEM_IUPAC_CAS_NAME>
methanesulfonic acid;4-[(4-methyl-1-piperazinyl)methyl]-N-[6-methyl-5-[[4-(3-pyridinyl)-2-pyrimidinyl]amino]-3-pyridinyl]-3-(trifluoromethyl)benzamide

> <PUBCHEM_IUPAC_NAME_MARKUP>
methanesulfonic acid;4-[(4-methylpiperazin-1-yl)methyl]-<I>N</I>-[6-methyl-5-[(4-pyridin-3-ylpyrimidin-2-yl)amino]pyridin-3-yl]-3-(trifluoromethyl)benzamide

> <PUBCHEM_IUPAC_NAME>
methanesulfonic acid;4-[(4-methylpiperazin-1-yl)methyl]-N-[6-methyl-5-[(4-pyridin-3-ylpyrimidin-2-yl)amino]pyridin-3-yl]-3-(trifluoromethyl)benzamide

> <PUBCHEM_IUPAC_SYSTEMATIC_NAME>
methanesulfonic acid;4-[(4-methylpiperazin-1-yl)methyl]-N-[6-methyl-5-[(4-pyridin-3-ylpyrimidin-2-yl)amino]pyridin-3-yl]-3-(trifluoromethyl)benzamide

> <PUBCHEM_IUPAC_TRADITIONAL_NAME>
mesylic acid;4-[(4-methylpiperazino)methyl]-N-[6-methyl-5-[[4-(3-pyridyl)pyrimidin-2-yl]amino]-3-pyridyl]-3-(trifluoromethyl)benzamide

> <PUBCHEM_IUPAC_INCHI>
InChI=1S/C29H29F3N8O.CH4O3S/c1-19-26(38-28-34-9-7-25(37-28)21-4-3-8-33-16-21)15-23(17-35-19)36-27(41)20-5-6-22(24(14-20)29(30,31)32)18-40-12-10-39(2)11-13-40;1-5(2,3)4/h3-9,14-17H,10-13,18H2,1-2H3,(H,36,41)(H,34,37,38);1H3,(H,2,3,4)

> <PUBCHEM_IUPAC_INCHIKEY>
ZSASDYCFROUKTJ-UHFFFAOYSA-N

> <PUBCHEM_EXACT_MASS>
658.22975722

> <PUBCHEM_MOLECULAR_FORMULA>
C30H33F3N8O4S

> <PUBCHEM_MOLECULAR_WEIGHT>
658.7

> <PUBCHEM_OPENEYE_CAN_SMILES>
CC1=C(C=C(C=N1)NC(=O)C2=CC(=C(C=C2)CN3CCN(CC3)C)C(F)(F)F)NC4=NC=CC(=N4)C5=CN=CC=C5.CS(=O)(=O)O

> <PUBCHEM_OPENEYE_ISO_SMILES>
CC1=C(C=C(C=N1)NC(=O)C2=CC(=C(C=C2)CN3CCN(CC3)C)C(F)(F)F)NC4=NC=CC(=N4)C5=CN=CC=C5.CS(=O)(=O)O

> <PUBCHEM_CACTVS_TPSA>
162

> <PUBCHEM_MONOISOTOPIC_WEIGHT>
658.22975722

> <PUBCHEM_TOTAL_CHARGE>
0

> <PUBCHEM_HEAVY_ATOM_COUNT>
46

> <PUBCHEM_ATOM_DEF_STEREO_COUNT>
0

> <PUBCHEM_ATOM_UDEF_STEREO_COUNT>
0

> <PUBCHEM_BOND_DEF_STEREO_COUNT>
0

> <PUBCHEM_BOND_UDEF_STEREO_COUNT>
0

> <PUBCHEM_ISOTOPIC_ATOM_COUNT>
0

> <PUBCHEM_COMPONENT_COUNT>
2

> <PUBCHEM_CACTVS_TAUTO_COUNT>
-1

> <PUBCHEM_COORDINATE_TYPE>
1
5
255

> <PUBCHEM_BONDANNOTATIONS>
12  34  8
12  35  8
14  37  8
14  38  8
15  37  8
15  41  8
16  43  8
16  45  8
22  24  8
22  25  8
24  26  8
25  27  8
26  28  8
27  28  8
31  32  8
31  34  8
32  33  8
33  35  8
38  40  8
39  42  8
39  43  8
40  41  8
42  44  8
44  45  8

$$$$
51039095
  -OEChem-11282412102D

 67 70  0     1  0  0  0  0  0999 V2000
    4.5981    0.6978    0.0000 O   0  0  0  0  0  0  0  0  0  0  0  0
    6.7117   -4.9726    0.0000 O   0  0  0  0  0  0  0  0  0  0  0  0
    3.9092   -7.0088    0.0000 O   0  0  0  0  0  0  0  0  0  0  0  0
    3.7320    5.1978    0.0000 N   0  0  0  0  0  0  0  0  0  0  0  0
    3.7320    7.1978    0.0000 N   0  0  0  0  0  0  0  0  0  0  0  0
    2.8660    0.6978    0.0000 N   0  0  0  0  0  0  0  0  0  0  0  0
    2.3660   -1.8411    0.0000 N   0  0  0  0  0  0  0  0  0  0  0  0
    2.0570   -0.8900    0.0000 N   0  0  0  0  0  0  0  0  0  0  0  0
    2.8660    6.6978    0.0000 C   0  0  2  0  0  0  0  0  0  0  0  0
    4.5981    6.6978    0.0000 C   0  0  1  0  0  0  0  0  0  0  0  0
    2.8660    5.6978    0.0000 C   0  0  0  0  0  0  0  0  0  0  0  0
    4.5981    5.6978    0.0000 C   0  0  0  0  0  0  0  0  0  0  0  0
    2.0000    7.1978    0.0000 C   0  0  0  0  0  0  0  0  0  0  0  0
    5.4641    7.1978    0.0000 C   0  0  0  0  0  0  0  0  0  0  0  0
    3.7320    4.1978    0.0000 C   0  0  0  0  0  0  0  0  0  0  0  0
    2.8660    3.6978    0.0000 C   0  0  0  0  0  0  0  0  0  0  0  0
    4.5981    3.6978    0.0000 C   0  0  0  0  0  0  0  0  0  0  0  0
    2.8660    2.6978    0.0000 C   0  0  0  0  0  0  0  0  0  0  0  0
    4.5981    2.6978    0.0000 C   0  0  0  0  0  0  0  0  0  0  0  0
    3.7320    2.1978    0.0000 C   0  0  0  0  0  0  0  0  0  0  0  0
    3.7320    1.1978    0.0000 C   0  0  0  0  0  0  0  0  0  0  0  0
    3.9538   -2.6501    0.0000 C   0  0  0  0  0  0  0  0  0  0  0  0
    3.5471   -3.5636    0.0000 C   0  0  0  0  0  0  0  0  0  0  0  0
    3.3660   -1.8411    0.0000 C   0  0  0  0  0  0  0  0  0  0  0  0
    2.8660   -0.3022    0.0000 C   0  0  0  0  0  0  0  0  0  0  0  0
    4.1349   -4.3726    0.0000 C   0  0  0  0  0  0  0  0  0  0  0  0
    3.6750   -0.8900    0.0000 C   0  0  0  0  0  0  0  0  0  0  0  0
    3.7281   -5.2862    0.0000 C   0  0  0  0  0  0  0  0  0  0  0  0
    5.1294   -4.2681    0.0000 C   0  0  0  0  0  0  0  0  0  0  0  0
    5.7172   -5.0771    0.0000 C   0  0  0  0  0  0  0  0  0  0  0  0
    4.3159   -6.0952    0.0000 C   0  0  0  0  0  0  0  0  0  0  0  0
    5.3104   -5.9907    0.0000 C   0  0  0  0  0  0  0  0  0  0  0  0
    7.2995   -5.7816    0.0000 C   0  0  0  0  0  0  0  0  0  0  0  0
    4.4970   -7.8178    0.0000 C   0  0  0  0  0  0  0  0  0  0  0  0
    2.8660    7.3178    0.0000 H   0  0  0  0  0  0  0  0  0  0  0  0
    4.5981    7.3178    0.0000 H   0  0  0  0  0  0  0  0  0  0  0  0
    2.2554    5.8054    0.0000 H   0  0  0  0  0  0  0  0  0  0  0  0
    2.6540    5.1152    0.0000 H   0  0  0  0  0  0  0  0  0  0  0  0
    4.8101    5.1152    0.0000 H   0  0  0  0  0  0  0  0  0  0  0  0
    5.2087    5.8054    0.0000 H   0  0  0  0  0  0  0  0  0  0  0  0
    3.7320    7.8178    0.0000 H   0  0  0  0  0  0  0  0  0  0  0  0
    2.3100    7.7347    0.0000 H   0  0  0  0  0  0  0  0  0  0  0  0
    1.4631    7.5078    0.0000 H   0  0  0  0  0  0  0  0  0  0  0  0
    1.6900    6.6608    0.0000 H   0  0  0  0  0  0  0  0  0  0  0  0
    5.7741    6.6608    0.0000 H   0  0  0  0  0  0  0  0  0  0  0  0
    6.0010    7.5078    0.0000 H   0  0  0  0  0  0  0  0  0  0  0  0
    5.1541    7.7347    0.0000 H   0  0  0  0  0  0  0  0  0  0  0  0
    2.3291    4.0078    0.0000 H   0  0  0  0  0  0  0  0  0  0  0  0
    5.1350    4.0078    0.0000 H   0  0  0  0  0  0  0  0  0  0  0  0
    2.3291    2.3878    0.0000 H   0  0  0  0  0  0  0  0  0  0  0  0
    5.1350    2.3878    0.0000 H   0  0  0  0  0  0  0  0  0  0  0  0
    4.4678   -2.9968    0.0000 H   0  0  0  0  0  0  0  0  0  0  0  0
    4.3845   -2.2041    0.0000 H   0  0  0  0  0  0  0  0  0  0  0  0
    3.0331   -3.2169    0.0000 H   0  0  0  0  0  0  0  0  0  0  0  0
    3.1164   -4.0096    0.0000 H   0  0  0  0  0  0  0  0  0  0  0  0
    2.3291    1.0078    0.0000 H   0  0  0  0  0  0  0  0  0  0  0  0
    4.2647   -0.6984    0.0000 H   0  0  0  0  0  0  0  0  0  0  0  0
    2.0016   -2.3427    0.0000 H   0  0  0  0  0  0  0  0  0  0  0  0
    3.1115   -5.3510    0.0000 H   0  0  0  0  0  0  0  0  0  0  0  0
    5.3816   -3.7017    0.0000 H   0  0  0  0  0  0  0  0  0  0  0  0
    5.6749   -6.4923    0.0000 H   0  0  0  0  0  0  0  0  0  0  0  0
    6.7979   -6.1460    0.0000 H   0  0  0  0  0  0  0  0  0  0  0  0
    7.6639   -6.2832    0.0000 H   0  0  0  0  0  0  0  0  0  0  0  0
    7.8011   -5.4172    0.0000 H   0  0  0  0  0  0  0  0  0  0  0  0
    3.9954   -8.1822    0.0000 H   0  0  0  0  0  0  0  0  0  0  0  0
    4.8614   -8.3194    0.0000 H   0  0  0  0  0  0  0  0  0  0  0  0
    4.9986   -7.4534    0.0000 H   0  0  0  0  0  0  0  0  0  0  0  0
  1 21  2  0  0  0  0
  2 30  1  0  0  0  0
  2 33  1  0  0  0  0
  3 31  1  0  0  0  0
  3 34  1  0  0  0  0
  4 11  1  0  0  0  0
  4 12  1  0  0  0  0
  4 15  1  0  0  0  0
  5  9  1  0  0  0  0
  5 10  1  0  0  0  0
  5 41  1  0  0  0  0
  6 21  1  0  0  0  0
  6 25  1  0  0  0  0
  6 56  1  0  0  0  0
  7  8  1  0  0  0  0
  7 24  1  0  0  0  0
  7 58  1  0  0  0  0
  8 25  2  0  0  0  0
  9 11  1  0  0  0  0
  9 13  1  6  0  0  0
  9 35  1  0  0  0  0
 10 12  1  0  0  0  0
 10 14  1  6  0  0  0
 10 36  1  0  0  0  0
 11 37  1  0  0  0  0
 11 38  1  0  0  0  0
 12 39  1  0  0  0  0
 12 40  1  0  0  0  0
 13 42  1  0  0  0  0
 13 43  1  0  0  0  0
 13 44  1  0  0  0  0
 14 45  1  0  0  0  0
 14 46  1  0  0  0  0
 14 47  1  0  0  0  0
 15 16  2  0  0  0  0
 15 17  1  0  0  0  0
 16 18  1  0  0  0  0
 16 48  1  0  0  0  0
 17 19  2  0  0  0  0
 17 49  1  0  0  0  0
 18 20  2  0  0  0  0
 18 50  1  0  0  0  0
 19 20  1  0  0  0  0
 19 51  1  0  0  0  0
 20 21  1  0  0  0  0
 22 23  1  0  0  0  0
 22 24  1  0  0  0  0
 22 52  1  0  0  0  0
 22 53  1  0  0  0  0
 23 26  1  0  0  0  0
 23 54  1  0  0  0  0
 23 55  1  0  0  0  0
 24 27  2  0  0  0  0
 25 27  1  0  0  0  0
 26 28  2  0  0  0  0
 26 29  1  0  0  0  0
 27 57  1  0  0  0  0
 28 31  1  0  0  0  0
 28 59  1  0  0  0  0
 29 30  2  0  0  0  0
 29 60  1  0  0  0  0
 30 32  1  0  0  0  0
 31 32  2  0  0  0  0
 32 61  1  0  0  0  0
 33 62  1  0  0  0  0
 33 63  1  0  0  0  0
 33 64  1  0  0  0  0
 34 65  1  0  0  0  0
 34 66  1  0  0  0  0
 34 67  1  0  0  0  0
M  END
> <PUBCHEM_COMPOUND_CID>
51039095

> <PUBCHEM_COMPOUND_CANONICALIZED>
1

> <PUBCHEM_CACTVS_COMPLEXITY>
622

> <PUBCHEM_CACTVS_HBOND_ACCEPTOR>
6

> <PUBCHEM_CACTVS_HBOND_DONOR>
3

> <PUBCHEM_CACTVS_ROTATABLE_BOND>
8

> <PUBCHEM_CACTVS_SUBSKEYS>
AAADcfB7sAAAAAAAAAAAAAAAAAAAAWAAAAA8YIAAAAAAAAAB0AAAHgAYAAAADCzBngYz9pPjBACqAydycACSDAIlIgAduaE+bNiMZzLE/duUtSh13RfI6YeY6fyeCAABCAAAAAAQAAIQAAAAAAAAAAAAAA==

> <PUBCHEM_IUPAC_OPENEYE_NAME>
N-[5-[2-(3,5-dimethoxyphenyl)ethyl]-1H-pyrazol-3-yl]-4-[(3R,5S)-3,5-dimethylpiperazin-1-yl]benzamide

> <PUBCHEM_IUPAC_CAS_NAME>
N-[5-[2-(3,5-dimethoxyphenyl)ethyl]-1H-pyrazol-3-yl]-4-[(3R,5S)-3,5-dimethyl-1-piperazinyl]benzamide

> <PUBCHEM_IUPAC_NAME_MARKUP>
<I>N</I>-[5-[2-(3,5-dimethoxyphenyl)ethyl]-1<I>H</I>-pyrazol-3-yl]-4-[(3<I>R</I>,5<I>S</I>)-3,5-dimethylpiperazin-1-yl]benzamide

> <PUBCHEM_IUPAC_NAME>
N-[5-[2-(3,5-dimethoxyphenyl)ethyl]-1H-pyrazol-3-yl]-4-[(3R,5S)-3,5-dimethylpiperazin-1-yl]benzamide

> <PUBCHEM_IUPAC_SYSTEMATIC_NAME>
N-[5-[2-(3,5-dimethoxyphenyl)ethyl]-1H-pyrazol-3-yl]-4-[(3R,5S)-3,5-dimethylpiperazin-1-yl]benzamide

> <PUBCHEM_IUPAC_TRADITIONAL_NAME>
N-[5-[2-(3,5-dimethoxyphenyl)ethyl]-1H-pyrazol-3-yl]-4-[(3R,5S)-3,5-dimethylpiperazino]benzamide

> <PUBCHEM_IUPAC_INCHI>
InChI=1S/C26H33N5O3/c1-17-15-31(16-18(2)27-17)22-9-6-20(7-10-22)26(32)28-25-13-21(29-30-25)8-5-19-11-23(33-3)14-24(12-19)34-4/h6-7,9-14,17-18,27H,5,8,15-16H2,1-4H3,(H2,28,29,30,32)/t17-,18+

> <PUBCHEM_IUPAC_INCHIKEY>
VRQMAABPASPXMW-HDICACEKSA-N

> <PUBCHEM_XLOGP3_AA>
3.9

> <PUBCHEM_EXACT_MASS>
463.25833993

> <PUBCHEM_MOLECULAR_FORMULA>
C26H33N5O3

> <PUBCHEM_MOLECULAR_WEIGHT>
463.6

> <PUBCHEM_OPENEYE_CAN_SMILES>
CC1CN(CC(N1)C)C2=CC=C(C=C2)C(=O)NC3=NNC(=C3)CCC4=CC(=CC(=C4)OC)OC

> <PUBCHEM_OPENEYE_ISO_SMILES>
C[C@@H]1CN(C[C@@H](N1)C)C2=CC=C(C=C2)C(=O)NC3=NNC(=C3)CCC4=CC(=CC(=C4)OC)OC

> <PUBCHEM_CACTVS_TPSA>
91.5

> <PUBCHEM_MONOISOTOPIC_WEIGHT>
463.25833993

> <PUBCHEM_TOTAL_CHARGE>
0

> <PUBCHEM_HEAVY_ATOM_COUNT>
34

> <PUBCHEM_ATOM_DEF_STEREO_COUNT>
2

> <PUBCHEM_ATOM_UDEF_STEREO_COUNT>
0

> <PUBCHEM_BOND_DEF_STEREO_COUNT>
0

> <PUBCHEM_BOND_UDEF_STEREO_COUNT>
0

> <PUBCHEM_ISOTOPIC_ATOM_COUNT>
0

> <PUBCHEM_COMPONENT_COUNT>
1

> <PUBCHEM_CACTVS_TAUTO_COUNT>
-1

> <PUBCHEM_COORDINATE_TYPE>
1
5
255

> <PUBCHEM_BONDANNOTATIONS>
10  14  6
15  16  8
15  17  8
16  18  8
17  19  8
18  20  8
19  20  8
24  27  8
25  27  8
26  28  8
26  29  8
28  31  8
29  30  8
30  32  8
31  32  8
7  24  8
7  8  8
8  25  8
9  13  6

$$$$
54576299
  -OEChem-11282412102D

 58 62  0     0  0  0  0  0  0999 V2000
    3.7320    1.1830    0.0000 F   0  0  0  0  0  0  0  0  0  0  0  0
    7.1962   -0.8170    0.0000 F   0  0  0  0  0  0  0  0  0  0  0  0
   10.6603    7.1830    0.0000 F   0  0  0  0  0  0  0  0  0  0  0  0
    7.1962    2.1830    0.0000 O   0  0  0  0  0  0  0  0  0  0  0  0
    8.0622    3.6830    0.0000 O   0  0  0  0  0  0  0  0  0  0  0  0
    2.0000   -4.8170    0.0000 O   0  0  0  0  0  0  0  0  0  0  0  0
    5.4641   -1.8170    0.0000 O   0  0  0  0  0  0  0  0  0  0  0  0
    5.4641    2.1830    0.0000 N   0  0  0  0  0  0  0  0  0  0  0  0
    7.1962    5.1830    0.0000 N   0  0  0  0  0  0  0  0  0  0  0  0
    3.7320   -4.8170    0.0000 N   0  0  0  0  0  0  0  0  0  0  0  0
    2.8660   -3.3170    0.0000 N   0  0  0  0  0  0  0  0  0  0  0  0
    6.3301    3.6830    0.0000 C   0  0  0  0  0  0  0  0  0  0  0  0
    5.8301    4.5490    0.0000 C   0  0  0  0  0  0  0  0  0  0  0  0
    5.3301    3.6830    0.0000 C   0  0  0  0  0  0  0  0  0  0  0  0
    6.3301    2.6830    0.0000 C   0  0  0  0  0  0  0  0  0  0  0  0
    7.1962    4.1830    0.0000 C   0  0  0  0  0  0  0  0  0  0  0  0
    2.8660   -6.3170    0.0000 C   0  0  0  0  0  0  0  0  0  0  0  0
    2.3660   -7.1830    0.0000 C   0  0  0  0  0  0  0  0  0  0  0  0
    3.3660   -7.1830    0.0000 C   0  0  0  0  0  0  0  0  0  0  0  0
    2.8660   -5.3170    0.0000 C   0  0  0  0  0  0  0  0  0  0  0  0
    5.4641    1.1830    0.0000 C   0  0  0  0  0  0  0  0  0  0  0  0
    8.0622    5.6830    0.0000 C   0  0  0  0  0  0  0  0  0  0  0  0
    4.5981    0.6830    0.0000 C   0  0  0  0  0  0  0  0  0  0  0  0
    6.3301    0.6830    0.0000 C   0  0  0  0  0  0  0  0  0  0  0  0
    8.9282    5.1830    0.0000 C   0  0  0  0  0  0  0  0  0  0  0  0
    8.0622    6.6830    0.0000 C   0  0  0  0  0  0  0  0  0  0  0  0
    3.7320   -3.8170    0.0000 C   0  0  0  0  0  0  0  0  0  0  0  0
    6.3301   -0.3170    0.0000 C   0  0  0  0  0  0  0  0  0  0  0  0
    4.5981   -0.3170    0.0000 C   0  0  0  0  0  0  0  0  0  0  0  0
    5.4641   -0.8170    0.0000 C   0  0  0  0  0  0  0  0  0  0  0  0
    9.7942    5.6830    0.0000 C   0  0  0  0  0  0  0  0  0  0  0  0
    8.9282    7.1830    0.0000 C   0  0  0  0  0  0  0  0  0  0  0  0
    4.5981   -3.3170    0.0000 C   0  0  0  0  0  0  0  0  0  0  0  0
    9.7942    6.6830    0.0000 C   0  0  0  0  0  0  0  0  0  0  0  0
    4.5981   -2.3170    0.0000 C   0  0  0  0  0  0  0  0  0  0  0  0
    3.7320   -1.8170    0.0000 C   0  0  0  0  0  0  0  0  0  0  0  0
    2.8660   -2.3170    0.0000 C   0  0  0  0  0  0  0  0  0  0  0  0
    6.3051    4.9476    0.0000 H   0  0  0  0  0  0  0  0  0  0  0  0
    5.3552    4.9476    0.0000 H   0  0  0  0  0  0  0  0  0  0  0  0
    4.7475    3.8951    0.0000 H   0  0  0  0  0  0  0  0  0  0  0  0
    5.2225    3.0724    0.0000 H   0  0  0  0  0  0  0  0  0  0  0  0
    3.4649   -6.1565    0.0000 H   0  0  0  0  0  0  0  0  0  0  0  0
    1.7834   -6.9710    0.0000 H   0  0  0  0  0  0  0  0  0  0  0  0
    2.2584   -7.7936    0.0000 H   0  0  0  0  0  0  0  0  0  0  0  0
    3.4737   -7.7936    0.0000 H   0  0  0  0  0  0  0  0  0  0  0  0
    3.9486   -6.9710    0.0000 H   0  0  0  0  0  0  0  0  0  0  0  0
    4.9272    2.4930    0.0000 H   0  0  0  0  0  0  0  0  0  0  0  0
    6.6592    5.4930    0.0000 H   0  0  0  0  0  0  0  0  0  0  0  0
    4.2690   -5.1270    0.0000 H   0  0  0  0  0  0  0  0  0  0  0  0
    6.8671    0.9930    0.0000 H   0  0  0  0  0  0  0  0  0  0  0  0
    8.9282    4.5630    0.0000 H   0  0  0  0  0  0  0  0  0  0  0  0
    7.5252    6.9930    0.0000 H   0  0  0  0  0  0  0  0  0  0  0  0
    4.0611   -0.6270    0.0000 H   0  0  0  0  0  0  0  0  0  0  0  0
   10.3312    5.3730    0.0000 H   0  0  0  0  0  0  0  0  0  0  0  0
    8.9282    7.8030    0.0000 H   0  0  0  0  0  0  0  0  0  0  0  0
    5.1350   -3.6270    0.0000 H   0  0  0  0  0  0  0  0  0  0  0  0
    3.7320   -1.1970    0.0000 H   0  0  0  0  0  0  0  0  0  0  0  0
    2.3291   -2.0070    0.0000 H   0  0  0  0  0  0  0  0  0  0  0  0
  1 23  1  0  0  0  0
  2 28  1  0  0  0  0
  3 34  1  0  0  0  0
  4 15  2  0  0  0  0
  5 16  2  0  0  0  0
  6 20  2  0  0  0  0
  7 30  1  0  0  0  0
  7 35  1  0  0  0  0
  8 15  1  0  0  0  0
  8 21  1  0  0  0  0
  8 47  1  0  0  0  0
  9 16  1  0  0  0  0
  9 22  1  0  0  0  0
  9 48  1  0  0  0  0
 10 20  1  0  0  0  0
 10 27  1  0  0  0  0
 10 49  1  0  0  0  0
 11 27  2  0  0  0  0
 11 37  1  0  0  0  0
 12 13  1  0  0  0  0
 12 14  1  0  0  0  0
 12 15  1  0  0  0  0
 12 16  1  0  0  0  0
 13 14  1  0  0  0  0
 13 38  1  0  0  0  0
 13 39  1  0  0  0  0
 14 40  1  0  0  0  0
 14 41  1  0  0  0  0
 17 18  1  0  0  0  0
 17 19  1  0  0  0  0
 17 20  1  0  0  0  0
 17 42  1  0  0  0  0
 18 19  1  0  0  0  0
 18 43  1  0  0  0  0
 18 44  1  0  0  0  0
 19 45  1  0  0  0  0
 19 46  1  0  0  0  0
 21 23  1  0  0  0  0
 21 24  2  0  0  0  0
 22 25  2  0  0  0  0
 22 26  1  0  0  0  0
 23 29  2  0  0  0  0
 24 28  1  0  0  0  0
 24 50  1  0  0  0  0
 25 31  1  0  0  0  0
 25 51  1  0  0  0  0
 26 32  2  0  0  0  0
 26 52  1  0  0  0  0
 27 33  1  0  0  0  0
 28 30  2  0  0  0  0
 29 30  1  0  0  0  0
 29 53  1  0  0  0  0
 31 34  2  0  0  0  0
 31 54  1  0  0  0  0
 32 34  1  0  0  0  0
 32 55  1  0  0  0  0
 33 35  2  0  0  0  0
 33 56  1  0  0  0  0
 35 36  1  0  0  0  0
 36 37  2  0  0  0  0
 36 57  1  0  0  0  0
 37 58  1  0  0  0  0
M  END
> <PUBCHEM_COMPOUND_CID>
54576299

> <PUBCHEM_COMPOUND_CANONICALIZED>
1

> <PUBCHEM_CACTVS_COMPLEXITY>
863

> <PUBCHEM_CACTVS_HBOND_ACCEPTOR>
8

> <PUBCHEM_CACTVS_HBOND_DONOR>
3

> <PUBCHEM_CACTVS_ROTATABLE_BOND>
8

> <PUBCHEM_CACTVS_SUBSKEYS>
AAADceB7uYAAAAAAAAAAAAAAGDAAAAAAAAA8YIAAAAAAAAAB0AAAHwAQAAAADwzBkgw99pLIFACoADd3dACCiCkxIiAJ2CE+bJiMJnrM+ZuGOCju1RvI6CewQAAIAEAAAAAAAAAAgAAAAAAAAAAAAAAAAA==

> <PUBCHEM_IUPAC_OPENEYE_NAME>
N1'-[4-[[2-(cyclopropanecarbonylamino)-4-pyridyl]oxy]-2,5-difluoro-phenyl]-N1-(4-fluorophenyl)cyclopropane-1,1-dicarboxamide

> <PUBCHEM_IUPAC_CAS_NAME>
N1'-[4-[[2-[[cyclopropyl(oxo)methyl]amino]-4-pyridinyl]oxy]-2,5-difluorophenyl]-N1-(4-fluorophenyl)cyclopropane-1,1-dicarboxamide

> <PUBCHEM_IUPAC_NAME_MARKUP>
1-<I>N</I>&apos;-[4-[2-(cyclopropanecarbonylamino)pyridin-4-yl]oxy-2,5-difluorophenyl]-1-<I>N</I>-(4-fluorophenyl)cyclopropane-1,1-dicarboxamide

> <PUBCHEM_IUPAC_NAME>
1-N'-[4-[2-(cyclopropanecarbonylamino)pyridin-4-yl]oxy-2,5-difluorophenyl]-1-N-(4-fluorophenyl)cyclopropane-1,1-dicarboxamide

> <PUBCHEM_IUPAC_SYSTEMATIC_NAME>
N1'-[4-[2-(cyclopropylcarbonylamino)pyridin-4-yl]oxy-2,5-bis(fluoranyl)phenyl]-N1-(4-fluorophenyl)cyclopropane-1,1-dicarboxamide

> <PUBCHEM_IUPAC_TRADITIONAL_NAME>
N'-[4-[[2-(cyclopropanecarbonylamino)-4-pyridyl]oxy]-2,5-difluoro-phenyl]-N-(4-fluorophenyl)cyclopropane-1,1-dicarboxamide

> <PUBCHEM_IUPAC_INCHI>
InChI=1S/C26H21F3N4O4/c27-15-3-5-16(6-4-15)31-24(35)26(8-9-26)25(36)32-20-12-19(29)21(13-18(20)28)37-17-7-10-30-22(11-17)33-23(34)14-1-2-14/h3-7,10-14H,1-2,8-9H2,(H,31,35)(H,32,36)(H,30,33,34)

> <PUBCHEM_IUPAC_INCHIKEY>
GNNDEPIMDAZHRQ-UHFFFAOYSA-N

> <PUBCHEM_XLOGP3_AA>
4.3

> <PUBCHEM_EXACT_MASS>
510.15148965

> <PUBCHEM_MOLECULAR_FORMULA>
C26H21F3N4O4

> <PUBCHEM_MOLECULAR_WEIGHT>
510.5

> <PUBCHEM_OPENEYE_CAN_SMILES>
C1CC1C(=O)NC2=NC=CC(=C2)OC3=C(C=C(C(=C3)F)NC(=O)C4(CC4)C(=O)NC5=CC=C(C=C5)F)F

> <PUBCHEM_OPENEYE_ISO_SMILES>
C1CC1C(=O)NC2=NC=CC(=C2)OC3=C(C=C(C(=C3)F)NC(=O)C4(CC4)C(=O)NC5=CC=C(C=C5)F)F

> <PUBCHEM_CACTVS_TPSA>
109

> <PUBCHEM_MONOISOTOPIC_WEIGHT>
510.15148965

> <PUBCHEM_TOTAL_CHARGE>
0

> <PUBCHEM_HEAVY_ATOM_COUNT>
37

> <PUBCHEM_ATOM_DEF_STEREO_COUNT>
0

> <PUBCHEM_ATOM_UDEF_STEREO_COUNT>
0

> <PUBCHEM_BOND_DEF_STEREO_COUNT>
0

> <PUBCHEM_BOND_UDEF_STEREO_COUNT>
0

> <PUBCHEM_ISOTOPIC_ATOM_COUNT>
0

> <PUBCHEM_COMPONENT_COUNT>
1

> <PUBCHEM_CACTVS_TAUTO_COUNT>
-1

> <PUBCHEM_COORDINATE_TYPE>
1
5
255

> <PUBCHEM_BONDANNOTATIONS>
11  27  8
11  37  8
21  23  8
21  24  8
22  25  8
22  26  8
23  29  8
24  28  8
25  31  8
26  32  8
27  33  8
28  30  8
29  30  8
31  34  8
32  34  8
33  35  8
35  36  8
36  37  8

$$$$
59757974
  -OEChem-11282412102D

 63 67  0     0  0  0  0  0  0999 V2000
   10.1110   -0.4221    0.0000 O   0  0  0  0  0  0  0  0  0  0  0  0
    4.5013   -3.3676    0.0000 N   0  0  0  0  0  0  0  0  0  0  0  0
    5.7334    2.1712    0.0000 N   0  0  0  0  0  0  0  0  0  0  0  0
    4.8104   -2.4166    0.0000 N   0  0  0  0  0  0  0  0  0  0  0  0
    5.7334    4.1712    0.0000 N   0  0  0  0  0  0  0  0  0  0  0  0
    4.0013   -0.8288    0.0000 N   0  0  0  0  0  0  0  0  0  0  0  0
    6.5994    0.6712    0.0000 N   0  0  0  0  0  0  0  0  0  0  0  0
    5.7334   -0.8288    0.0000 N   0  0  0  0  0  0  0  0  0  0  0  0
    7.4654   -0.8288    0.0000 N   0  0  0  0  0  0  0  0  0  0  0  0
   10.7802   -1.1652    0.0000 N   0  0  0  0  0  0  0  0  0  0  0  0
    2.9136   -4.1767    0.0000 C   0  0  0  0  0  0  0  0  0  0  0  0
    2.0000   -4.5834    0.0000 C   0  0  0  0  0  0  0  0  0  0  0  0
    2.8090   -5.1712    0.0000 C   0  0  0  0  0  0  0  0  0  0  0  0
    3.5013   -3.3676    0.0000 C   0  0  0  0  0  0  0  0  0  0  0  0
    3.1923   -2.4166    0.0000 C   0  0  0  0  0  0  0  0  0  0  0  0
    4.0013   -1.8288    0.0000 C   0  0  0  0  0  0  0  0  0  0  0  0
    4.8674    2.6712    0.0000 C   0  0  0  0  0  0  0  0  0  0  0  0
    6.5994    2.6712    0.0000 C   0  0  0  0  0  0  0  0  0  0  0  0
    4.8674    3.6712    0.0000 C   0  0  0  0  0  0  0  0  0  0  0  0
    6.5994    3.6712    0.0000 C   0  0  0  0  0  0  0  0  0  0  0  0
    5.7334    1.1712    0.0000 C   0  0  0  0  0  0  0  0  0  0  0  0
    4.8674   -0.3288    0.0000 C   0  0  0  0  0  0  0  0  0  0  0  0
    5.7334    5.1712    0.0000 C   0  0  0  0  0  0  0  0  0  0  0  0
    4.8674    0.6712    0.0000 C   0  0  0  0  0  0  0  0  0  0  0  0
    6.5994   -0.3288    0.0000 C   0  0  0  0  0  0  0  0  0  0  0  0
    8.3315   -0.3288    0.0000 C   0  0  0  0  0  0  0  0  0  0  0  0
   10.6869   -2.9448    0.0000 C   0  0  0  0  0  0  0  0  0  0  0  0
    9.1975   -0.8288    0.0000 C   0  0  0  0  0  0  0  0  0  0  0  0
   10.2802   -2.0312    0.0000 C   0  0  0  0  0  0  0  0  0  0  0  0
    9.3020   -1.8233    0.0000 C   0  0  0  0  0  0  0  0  0  0  0  0
   11.6814   -3.0493    0.0000 C   0  0  0  0  0  0  0  0  0  0  0  0
   10.0991   -3.7538    0.0000 C   0  0  0  0  0  0  0  0  0  0  0  0
    3.4924   -4.3989    0.0000 H   0  0  0  0  0  0  0  0  0  0  0  0
    1.6533   -4.0694    0.0000 H   0  0  0  0  0  0  0  0  0  0  0  0
    1.5540   -5.0141    0.0000 H   0  0  0  0  0  0  0  0  0  0  0  0
    2.5372   -5.7284    0.0000 H   0  0  0  0  0  0  0  0  0  0  0  0
    3.4050   -5.3421    0.0000 H   0  0  0  0  0  0  0  0  0  0  0  0
    2.6027   -2.2250    0.0000 H   0  0  0  0  0  0  0  0  0  0  0  0
    4.8658   -3.8692    0.0000 H   0  0  0  0  0  0  0  0  0  0  0  0
    4.2568    2.7788    0.0000 H   0  0  0  0  0  0  0  0  0  0  0  0
    4.6553    2.0886    0.0000 H   0  0  0  0  0  0  0  0  0  0  0  0
    6.8115    2.0886    0.0000 H   0  0  0  0  0  0  0  0  0  0  0  0
    7.2100    2.7788    0.0000 H   0  0  0  0  0  0  0  0  0  0  0  0
    4.6553    4.2538    0.0000 H   0  0  0  0  0  0  0  0  0  0  0  0
    4.2568    3.5635    0.0000 H   0  0  0  0  0  0  0  0  0  0  0  0
    7.2100    3.5635    0.0000 H   0  0  0  0  0  0  0  0  0  0  0  0
    6.8115    4.2538    0.0000 H   0  0  0  0  0  0  0  0  0  0  0  0
    3.4644   -0.5188    0.0000 H   0  0  0  0  0  0  0  0  0  0  0  0
    6.3534    5.1712    0.0000 H   0  0  0  0  0  0  0  0  0  0  0  0
    5.7334    5.7912    0.0000 H   0  0  0  0  0  0  0  0  0  0  0  0
    5.1134    5.1712    0.0000 H   0  0  0  0  0  0  0  0  0  0  0  0
    4.3304    0.9812    0.0000 H   0  0  0  0  0  0  0  0  0  0  0  0
    7.4654   -1.4488    0.0000 H   0  0  0  0  0  0  0  0  0  0  0  0
    8.7300    0.1461    0.0000 H   0  0  0  0  0  0  0  0  0  0  0  0
    7.9329    0.1461    0.0000 H   0  0  0  0  0  0  0  0  0  0  0  0
   10.0703   -2.8800    0.0000 H   0  0  0  0  0  0  0  0  0  0  0  0
    8.8413   -2.2382    0.0000 H   0  0  0  0  0  0  0  0  0  0  0  0
   11.6166   -3.6659    0.0000 H   0  0  0  0  0  0  0  0  0  0  0  0
   12.2980   -3.1141    0.0000 H   0  0  0  0  0  0  0  0  0  0  0  0
   11.7462   -2.4327    0.0000 H   0  0  0  0  0  0  0  0  0  0  0  0
    9.5975   -3.3894    0.0000 H   0  0  0  0  0  0  0  0  0  0  0  0
    9.7347   -4.2554    0.0000 H   0  0  0  0  0  0  0  0  0  0  0  0
   10.6007   -4.1182    0.0000 H   0  0  0  0  0  0  0  0  0  0  0  0
  1 10  1  0  0  0  0
  1 28  1  0  0  0  0
  2  4  1  0  0  0  0
  2 14  1  0  0  0  0
  2 39  1  0  0  0  0
  3 17  1  0  0  0  0
  3 18  1  0  0  0  0
  3 21  1  0  0  0  0
  4 16  2  0  0  0  0
  5 19  1  0  0  0  0
  5 20  1  0  0  0  0
  5 23  1  0  0  0  0
  6 16  1  0  0  0  0
  6 22  1  0  0  0  0
  6 48  1  0  0  0  0
  7 21  2  0  0  0  0
  7 25  1  0  0  0  0
  8 22  1  0  0  0  0
  8 25  2  0  0  0  0
  9 25  1  0  0  0  0
  9 26  1  0  0  0  0
  9 53  1  0  0  0  0
 10 29  2  0  0  0  0
 11 12  1  0  0  0  0
 11 13  1  0  0  0  0
 11 14  1  0  0  0  0
 11 33  1  0  0  0  0
 12 13  1  0  0  0  0
 12 34  1  0  0  0  0
 12 35  1  0  0  0  0
 13 36  1  0  0  0  0
 13 37  1  0  0  0  0
 14 15  2  0  0  0  0
 15 16  1  0  0  0  0
 15 38  1  0  0  0  0
 17 19  1  0  0  0  0
 17 40  1  0  0  0  0
 17 41  1  0  0  0  0
 18 20  1  0  0  0  0
 18 42  1  0  0  0  0
 18 43  1  0  0  0  0
 19 44  1  0  0  0  0
 19 45  1  0  0  0  0
 20 46  1  0  0  0  0
 20 47  1  0  0  0  0
 21 24  1  0  0  0  0
 22 24  2  0  0  0  0
 23 49  1  0  0  0  0
 23 50  1  0  0  0  0
 23 51  1  0  0  0  0
 24 52  1  0  0  0  0
 26 28  1  0  0  0  0
 26 54  1  0  0  0  0
 26 55  1  0  0  0  0
 27 29  1  0  0  0  0
 27 31  1  0  0  0  0
 27 32  1  0  0  0  0
 27 56  1  0  0  0  0
 28 30  2  0  0  0  0
 29 30  1  0  0  0  0
 30 57  1  0  0  0  0
 31 58  1  0  0  0  0
 31 59  1  0  0  0  0
 31 60  1  0  0  0  0
 32 61  1  0  0  0  0
 32 62  1  0  0  0  0
 32 63  1  0  0  0  0
M  END
> <PUBCHEM_COMPOUND_CID>
59757974

> <PUBCHEM_COMPOUND_CANONICALIZED>
1

> <PUBCHEM_CACTVS_COMPLEXITY>
598

> <PUBCHEM_CACTVS_HBOND_ACCEPTOR>
9

> <PUBCHEM_CACTVS_HBOND_DONOR>
3

> <PUBCHEM_CACTVS_ROTATABLE_BOND>
8

> <PUBCHEM_CACTVS_SUBSKEYS>
AAADceB74AAAAAAAAAAAAAAAGAAAAWLAAAAsWAAAAAAAAAAB+AAAHgAcAAAADQzBlgQztJf7EACrAaZyZgCQhCslIqA1OaG+bFqCblpA2fOUlYh+mBrYSWOYAAAMAAAAAAAAAAAAAAAAAAAAAAAAAAAAAA==

> <PUBCHEM_IUPAC_OPENEYE_NAME>
N4-(5-cyclopropyl-1H-pyrazol-3-yl)-N2-[(3-isopropylisoxazol-5-yl)methyl]-6-(4-methylpiperazin-1-yl)pyrimidine-2,4-diamine

> <PUBCHEM_IUPAC_CAS_NAME>
N4-(5-cyclopropyl-1H-pyrazol-3-yl)-6-(4-methyl-1-piperazinyl)-N2-[(3-propan-2-yl-5-isoxazolyl)methyl]pyrimidine-2,4-diamine

> <PUBCHEM_IUPAC_NAME_MARKUP>
4-<I>N</I>-(5-cyclopropyl-1<I>H</I>-pyrazol-3-yl)-6-(4-methylpiperazin-1-yl)-2-<I>N</I>-[(3-propan-2-yl-1,2-oxazol-5-yl)methyl]pyrimidine-2,4-diamine

> <PUBCHEM_IUPAC_NAME>
4-N-(5-cyclopropyl-1H-pyrazol-3-yl)-6-(4-methylpiperazin-1-yl)-2-N-[(3-propan-2-yl-1,2-oxazol-5-yl)methyl]pyrimidine-2,4-diamine

> <PUBCHEM_IUPAC_SYSTEMATIC_NAME>
N4-(5-cyclopropyl-1H-pyrazol-3-yl)-6-(4-methylpiperazin-1-yl)-N2-[(3-propan-2-yl-1,2-oxazol-5-yl)methyl]pyrimidine-2,4-diamine

> <PUBCHEM_IUPAC_TRADITIONAL_NAME>
(5-cyclopropyl-1H-pyrazol-3-yl)-[2-[(3-isopropylisoxazol-5-yl)methylamino]-6-(4-methylpiperazino)pyrimidin-4-yl]amine

> <PUBCHEM_IUPAC_INCHI>
InChI=1S/C22H31N9O/c1-14(2)17-10-16(32-29-17)13-23-22-25-19(24-20-11-18(27-28-20)15-4-5-15)12-21(26-22)31-8-6-30(3)7-9-31/h10-12,14-15H,4-9,13H2,1-3H3,(H3,23,24,25,26,27,28)

> <PUBCHEM_IUPAC_INCHIKEY>
ALKJNCZNEOTEMP-UHFFFAOYSA-N

> <PUBCHEM_XLOGP3_AA>
3

> <PUBCHEM_EXACT_MASS>
437.26515665

> <PUBCHEM_MOLECULAR_FORMULA>
C22H31N9O

> <PUBCHEM_MOLECULAR_WEIGHT>
437.5

> <PUBCHEM_OPENEYE_CAN_SMILES>
CC(C)C1=NOC(=C1)CNC2=NC(=CC(=N2)N3CCN(CC3)C)NC4=NNC(=C4)C5CC5

> <PUBCHEM_OPENEYE_ISO_SMILES>
CC(C)C1=NOC(=C1)CNC2=NC(=CC(=N2)N3CCN(CC3)C)NC4=NNC(=C4)C5CC5

> <PUBCHEM_CACTVS_TPSA>
111

> <PUBCHEM_MONOISOTOPIC_WEIGHT>
437.26515665

> <PUBCHEM_TOTAL_CHARGE>
0

> <PUBCHEM_HEAVY_ATOM_COUNT>
32

> <PUBCHEM_ATOM_DEF_STEREO_COUNT>
0

> <PUBCHEM_ATOM_UDEF_STEREO_COUNT>
0

> <PUBCHEM_BOND_DEF_STEREO_COUNT>
0

> <PUBCHEM_BOND_UDEF_STEREO_COUNT>
0

> <PUBCHEM_ISOTOPIC_ATOM_COUNT>
0

> <PUBCHEM_COMPONENT_COUNT>
1

> <PUBCHEM_CACTVS_TAUTO_COUNT>
-1

> <PUBCHEM_COORDINATE_TYPE>
1
5
255

> <PUBCHEM_BONDANNOTATIONS>
1  10  8
1  28  8
10  29  8
14  15  8
15  16  8
2  14  8
2  4  8
21  24  8
22  24  8
28  30  8
29  30  8
4  16  8
7  21  8
7  25  8
8  22  8
8  25  8

$$$$
71611869
  -OEChem-11282412102D

 59 63  0     1  0  0  0  0  0999 V2000
    6.2389    1.2900    0.0000 S   0  0  0  0  0  0  0  0  0  0  0  0
    7.0656   -1.6360    0.0000 O   0  0  0  0  0  0  0  0  0  0  0  0
    2.0000   -3.6014    0.0000 O   0  0  0  0  0  0  0  0  0  0  0  0
    7.9380    2.6413    0.0000 O   0  0  0  0  0  0  0  0  0  0  0  0
    4.6249   -3.2695    0.0000 N   0  0  3  0  0  0  0  0  0  0  0  0
    4.0358   -1.2700    0.0000 N   0  0  0  0  0  0  0  0  0  0  0  0
    3.2892   -4.7581    0.0000 N   0  0  0  0  0  0  0  0  0  0  0  0
    3.1698   -1.7700    0.0000 N   0  0  0  0  0  0  0  0  0  0  0  0
    2.3038   -0.2700    0.0000 N   0  0  0  0  0  0  0  0  0  0  0  0
    3.1698    1.2300    0.0000 N   0  0  0  0  0  0  0  0  0  0  0  0
    4.9820   -1.5747    0.0000 C   0  0  0  0  0  0  0  0  0  0  0  0
    5.2927   -2.5252    0.0000 C   0  0  0  0  0  0  0  0  0  0  0  0
    5.5656   -0.7700    0.0000 C   0  0  0  0  0  0  0  0  0  0  0  0
    4.9820    0.0348    0.0000 C   0  0  0  0  0  0  0  0  0  0  0  0
    4.9355   -4.2200    0.0000 C   0  0  0  0  0  0  0  0  0  0  0  0
    4.0358   -0.2700    0.0000 C   0  0  0  0  0  0  0  0  0  0  0  0
    3.6464   -3.0633    0.0000 C   0  0  0  0  0  0  0  0  0  0  0  0
    4.2677   -4.9643    0.0000 C   0  0  0  0  0  0  0  0  0  0  0  0
    5.2927    0.9853    0.0000 C   0  0  0  0  0  0  0  0  0  0  0  0
    6.5656   -0.7700    0.0000 C   0  0  0  0  0  0  0  0  0  0  0  0
    2.9785   -3.8076    0.0000 C   0  0  0  0  0  0  0  0  0  0  0  0
    3.1698    0.2300    0.0000 C   0  0  0  0  0  0  0  0  0  0  0  0
    4.7091    1.7900    0.0000 C   0  0  0  0  0  0  0  0  0  0  0  0
    5.2927    2.5947    0.0000 C   0  0  0  0  0  0  0  0  0  0  0  0
    6.2432    2.2841    0.0000 C   0  0  0  0  0  0  0  0  0  0  0  0
    2.3038   -1.2700    0.0000 C   0  0  0  0  0  0  0  0  0  0  0  0
    5.0865    3.5732    0.0000 C   0  0  0  0  0  0  0  0  0  0  0  0
    6.9875    2.9519    0.0000 C   0  0  0  0  0  0  0  0  0  0  0  0
    5.8308    4.2411    0.0000 C   0  0  0  0  0  0  0  0  0  0  0  0
    6.7813    3.9304    0.0000 C   0  0  0  0  0  0  0  0  0  0  0  0
    8.0656   -1.6360    0.0000 C   0  0  0  0  0  0  0  0  0  0  0  0
    5.6246    5.2196    0.0000 C   0  0  0  0  0  0  0  0  0  0  0  0
    8.6823    3.3091    0.0000 C   0  0  0  0  0  0  0  0  0  0  0  0
    5.6752   -3.0131    0.0000 H   0  0  0  0  0  0  0  0  0  0  0  0
    5.8396   -2.2332    0.0000 H   0  0  0  0  0  0  0  0  0  0  0  0
    5.3181   -4.7080    0.0000 H   0  0  0  0  0  0  0  0  0  0  0  0
    5.4824   -3.9280    0.0000 H   0  0  0  0  0  0  0  0  0  0  0  0
    3.8776   -2.4880    0.0000 H   0  0  0  0  0  0  0  0  0  0  0  0
    3.1200   -2.7357    0.0000 H   0  0  0  0  0  0  0  0  0  0  0  0
    4.0364   -5.5396    0.0000 H   0  0  0  0  0  0  0  0  0  0  0  0
    4.7940   -5.2920    0.0000 H   0  0  0  0  0  0  0  0  0  0  0  0
    7.1483   -0.5579    0.0000 H   0  0  0  0  0  0  0  0  0  0  0  0
    6.4580   -0.1594    0.0000 H   0  0  0  0  0  0  0  0  0  0  0  0
    2.8751   -5.2196    0.0000 H   0  0  0  0  0  0  0  0  0  0  0  0
    4.0891    1.7900    0.0000 H   0  0  0  0  0  0  0  0  0  0  0  0
    1.7668   -1.5800    0.0000 H   0  0  0  0  0  0  0  0  0  0  0  0
    4.4972    3.7659    0.0000 H   0  0  0  0  0  0  0  0  0  0  0  0
    2.6329    1.5400    0.0000 H   0  0  0  0  0  0  0  0  0  0  0  0
    3.7067    1.5400    0.0000 H   0  0  0  0  0  0  0  0  0  0  0  0
    7.2428    4.3445    0.0000 H   0  0  0  0  0  0  0  0  0  0  0  0
    8.0656   -2.2560    0.0000 H   0  0  0  0  0  0  0  0  0  0  0  0
    8.6857   -1.6360    0.0000 H   0  0  0  0  0  0  0  0  0  0  0  0
    8.0656   -1.0160    0.0000 H   0  0  0  0  0  0  0  0  0  0  0  0
    6.2312    5.3474    0.0000 H   0  0  0  0  0  0  0  0  0  0  0  0
    5.4967    5.8263    0.0000 H   0  0  0  0  0  0  0  0  0  0  0  0
    5.0179    5.0917    0.0000 H   0  0  0  0  0  0  0  0  0  0  0  0
    9.0964    2.8476    0.0000 H   0  0  0  0  0  0  0  0  0  0  0  0
    9.1438    3.7232    0.0000 H   0  0  0  0  0  0  0  0  0  0  0  0
    8.2683    3.7706    0.0000 H   0  0  0  0  0  0  0  0  0  0  0  0
  1 19  1  0  0  0  0
  1 25  1  0  0  0  0
  2 20  1  0  0  0  0
  2 31  1  0  0  0  0
  3 21  2  0  0  0  0
  4 28  1  0  0  0  0
  4 33  1  0  0  0  0
  5 12  1  0  0  0  0
  5 15  1  0  0  0  0
  5 17  1  0  0  0  0
  6  8  1  0  0  0  0
  6 11  1  0  0  0  0
  6 16  1  0  0  0  0
  7 18  1  0  0  0  0
  7 21  1  0  0  0  0
  7 44  1  0  0  0  0
  8 26  2  0  0  0  0
  9 22  2  0  0  0  0
  9 26  1  0  0  0  0
 10 22  1  0  0  0  0
 10 48  1  0  0  0  0
 10 49  1  0  0  0  0
 11 12  1  0  0  0  0
 11 13  2  0  0  0  0
 12 34  1  0  0  0  0
 12 35  1  0  0  0  0
 13 14  1  0  0  0  0
 13 20  1  0  0  0  0
 14 16  2  0  0  0  0
 14 19  1  0  0  0  0
 15 18  1  0  0  0  0
 15 36  1  0  0  0  0
 15 37  1  0  0  0  0
 16 22  1  0  0  0  0
 17 21  1  0  0  0  0
 17 38  1  0  0  0  0
 17 39  1  0  0  0  0
 18 40  1  0  0  0  0
 18 41  1  0  0  0  0
 19 23  2  0  0  0  0
 20 42  1  0  0  0  0
 20 43  1  0  0  0  0
 23 24  1  0  0  0  0
 23 45  1  0  0  0  0
 24 25  2  0  0  0  0
 24 27  1  0  0  0  0
 25 28  1  0  0  0  0
 26 46  1  0  0  0  0
 27 29  2  0  0  0  0
 27 47  1  0  0  0  0
 28 30  2  0  0  0  0
 29 30  1  0  0  0  0
 29 32  1  0  0  0  0
 30 50  1  0  0  0  0
 31 51  1  0  0  0  0
 31 52  1  0  0  0  0
 31 53  1  0  0  0  0
 32 54  1  0  0  0  0
 32 55  1  0  0  0  0
 32 56  1  0  0  0  0
 33 57  1  0  0  0  0
 33 58  1  0  0  0  0
 33 59  1  0  0  0  0
M  END
> <PUBCHEM_COMPOUND_CID>
71611869

> <PUBCHEM_COMPOUND_CANONICALIZED>
1

> <PUBCHEM_CACTVS_COMPLEXITY>
703

> <PUBCHEM_CACTVS_HBOND_ACCEPTOR>
8

> <PUBCHEM_CACTVS_HBOND_DONOR>
2

> <PUBCHEM_CACTVS_ROTATABLE_BOND>
6

> <PUBCHEM_CACTVS_SUBSKEYS>
AAADceB7sABAAAAAAAAAAAAAAAAAAWJAAAA8WIAAAAAAAFgB/gAAHgQYAAAADAzh3gY39/fIFAiuAydzdACTjK8xuLBV2Lq+XJiMbmLkubuUsChm3hPo6Cew0PIOkAADAAAEIAAgAAYAAAhAAAAAAAAAAA==

> <PUBCHEM_IUPAC_OPENEYE_NAME>
4-[[4-amino-6-(methoxymethyl)-5-(7-methoxy-5-methyl-benzothiophen-2-yl)pyrrolo[2,1-f][1,2,4]triazin-7-yl]methyl]piperazin-2-one

> <PUBCHEM_IUPAC_CAS_NAME>
4-[[4-amino-6-(methoxymethyl)-5-(7-methoxy-5-methyl-1-benzothiophen-2-yl)-7-pyrrolo[2,1-f][1,2,4]triazinyl]methyl]-2-piperazinone

> <PUBCHEM_IUPAC_NAME_MARKUP>
4-[[4-amino-6-(methoxymethyl)-5-(7-methoxy-5-methyl-1-benzothiophen-2-yl)pyrrolo[2,1-f][1,2,4]triazin-7-yl]methyl]piperazin-2-one

> <PUBCHEM_IUPAC_NAME>
4-[[4-amino-6-(methoxymethyl)-5-(7-methoxy-5-methyl-1-benzothiophen-2-yl)pyrrolo[2,1-f][1,2,4]triazin-7-yl]methyl]piperazin-2-one

> <PUBCHEM_IUPAC_SYSTEMATIC_NAME>
4-[[4-azanyl-6-(methoxymethyl)-5-(7-methoxy-5-methyl-1-benzothiophen-2-yl)pyrrolo[2,1-f][1,2,4]triazin-7-yl]methyl]piperazin-2-one

> <PUBCHEM_IUPAC_TRADITIONAL_NAME>
4-[[4-amino-6-(methoxymethyl)-5-(7-methoxy-5-methyl-benzothiophen-2-yl)pyrrolo[2,1-f][1,2,4]triazin-7-yl]methyl]piperazin-2-one

> <PUBCHEM_IUPAC_INCHI>
InChI=1S/C23H26N6O3S/c1-13-6-14-8-18(33-22(14)17(7-13)32-3)20-15(11-31-2)16(9-28-5-4-25-19(30)10-28)29-21(20)23(24)26-12-27-29/h6-8,12H,4-5,9-11H2,1-3H3,(H,25,30)(H2,24,26,27)

> <PUBCHEM_IUPAC_INCHIKEY>
HNLRRJSKGXOYNO-UHFFFAOYSA-N

> <PUBCHEM_XLOGP3_AA>
1.7

> <PUBCHEM_EXACT_MASS>
466.17870989

> <PUBCHEM_MOLECULAR_FORMULA>
C23H26N6O3S

> <PUBCHEM_MOLECULAR_WEIGHT>
466.6

> <PUBCHEM_OPENEYE_CAN_SMILES>
CC1=CC2=C(C(=C1)OC)SC(=C2)C3=C4C(=NC=NN4C(=C3COC)CN5CCNC(=O)C5)N

> <PUBCHEM_OPENEYE_ISO_SMILES>
CC1=CC2=C(C(=C1)OC)SC(=C2)C3=C4C(=NC=NN4C(=C3COC)CN5CCNC(=O)C5)N

> <PUBCHEM_CACTVS_TPSA>
135

> <PUBCHEM_MONOISOTOPIC_WEIGHT>
466.17870989

> <PUBCHEM_TOTAL_CHARGE>
0

> <PUBCHEM_HEAVY_ATOM_COUNT>
33

> <PUBCHEM_ATOM_DEF_STEREO_COUNT>
0

> <PUBCHEM_ATOM_UDEF_STEREO_COUNT>
0

> <PUBCHEM_BOND_DEF_STEREO_COUNT>
0

> <PUBCHEM_BOND_UDEF_STEREO_COUNT>
0

> <PUBCHEM_ISOTOPIC_ATOM_COUNT>
0

> <PUBCHEM_COMPONENT_COUNT>
1

> <PUBCHEM_CACTVS_TAUTO_COUNT>
9

> <PUBCHEM_COORDINATE_TYPE>
1
5
255

> <PUBCHEM_BONDANNOTATIONS>
1  19  8
1  25  8
11  13  8
13  14  8
14  16  8
16  22  8
19  23  8
23  24  8
24  25  8
24  27  8
25  28  8
27  29  8
28  30  8
29  30  8
6  11  8
6  16  8
6  8  8
8  26  8
9  22  8
9  26  8

$$$$
71622431
  -OEChem-11282412102D

 51 55  0     1  0  0  0  0  0999 V2000
    5.0604    4.1075    0.0000 S   0  0  0  0  0  0  0  0  0  0  0  0
    5.1650    1.1130    0.0000 O   0  0  0  0  0  0  0  0  0  0  0  0
    2.5878    3.3449    0.0000 O   0  0  0  0  0  0  0  0  0  0  0  0
    6.8970    1.1130    0.0000 N   0  0  0  0  0  0  0  0  0  0  0  0
   10.4206   -0.9214    0.0000 N   0  0  3  0  0  0  0  0  0  0  0  0
    6.0310    2.6130    0.0000 N   0  0  0  0  0  0  0  0  0  0  0  0
    9.5546   -2.4214    0.0000 N   0  0  0  0  0  0  0  0  0  0  0  0
   12.2329   -3.7261    0.0000 N   0  0  0  0  0  0  0  0  0  0  0  0
   10.4206   -3.9214    0.0000 N   0  0  0  0  0  0  0  0  0  0  0  0
    4.2514    2.7062    0.0000 N   0  0  0  0  0  0  0  0  0  0  0  0
    4.0823    4.3154    0.0000 N   0  0  0  0  0  0  0  0  0  0  0  0
    8.4719    0.7811    0.0000 C   0  0  1  0  0  0  0  0  0  0  0  0
    7.9719   -0.0849    0.0000 C   0  0  2  0  0  0  0  0  0  0  0  0
    9.4500    0.5732    0.0000 C   0  0  0  0  0  0  0  0  0  0  0  0
    8.6410   -0.8281    0.0000 C   0  0  0  0  0  0  0  0  0  0  0  0
    9.5546   -0.4214    0.0000 C   0  0  0  0  0  0  0  0  0  0  0  0
    7.8048    1.5181    0.0000 C   0  0  0  0  0  0  0  0  0  0  0  0
    7.0001    0.1243    0.0000 C   0  0  0  0  0  0  0  0  0  0  0  0
    6.0310    1.6130    0.0000 C   0  0  0  0  0  0  0  0  0  0  0  0
   11.2866   -0.4214    0.0000 C   0  0  0  0  0  0  0  0  0  0  0  0
   10.4206   -1.9214    0.0000 C   0  0  0  0  0  0  0  0  0  0  0  0
   11.2866   -2.4214    0.0000 C   0  0  0  0  0  0  0  0  0  0  0  0
   11.2866   -3.4214    0.0000 C   0  0  0  0  0  0  0  0  0  0  0  0
   12.2329   -2.1166    0.0000 C   0  0  0  0  0  0  0  0  0  0  0  0
    5.1650    3.1130    0.0000 C   0  0  0  0  0  0  0  0  0  0  0  0
    9.5546   -3.4214    0.0000 C   0  0  0  0  0  0  0  0  0  0  0  0
   12.8165   -2.9214    0.0000 C   0  0  0  0  0  0  0  0  0  0  0  0
    3.5823    3.4494    0.0000 C   0  0  0  0  0  0  0  0  0  0  0  0
    2.0000    4.1539    0.0000 C   0  0  0  0  0  0  0  0  0  0  0  0
    8.8959    1.5178    0.0000 H   0  0  0  0  0  0  0  0  0  0  0  0
    7.5460   -0.8205    0.0000 H   0  0  0  0  0  0  0  0  0  0  0  0
   10.0701    0.5732    0.0000 H   0  0  0  0  0  0  0  0  0  0  0  0
    9.5149    1.1898    0.0000 H   0  0  0  0  0  0  0  0  0  0  0  0
    8.1394   -1.1925    0.0000 H   0  0  0  0  0  0  0  0  0  0  0  0
    8.9510   -1.3650    0.0000 H   0  0  0  0  0  0  0  0  0  0  0  0
    9.5221   -1.0405    0.0000 H   0  0  0  0  0  0  0  0  0  0  0  0
    8.3057    1.8835    0.0000 H   0  0  0  0  0  0  0  0  0  0  0  0
    7.4940    2.0546    0.0000 H   0  0  0  0  0  0  0  0  0  0  0  0
    6.3801    0.1251    0.0000 H   0  0  0  0  0  0  0  0  0  0  0  0
    6.9340   -0.4922    0.0000 H   0  0  0  0  0  0  0  0  0  0  0  0
   11.5966   -0.9583    0.0000 H   0  0  0  0  0  0  0  0  0  0  0  0
   11.8236   -0.1114    0.0000 H   0  0  0  0  0  0  0  0  0  0  0  0
   10.9766    0.1156    0.0000 H   0  0  0  0  0  0  0  0  0  0  0  0
    6.5679    2.9230    0.0000 H   0  0  0  0  0  0  0  0  0  0  0  0
   12.4255   -1.5273    0.0000 H   0  0  0  0  0  0  0  0  0  0  0  0
    9.0176   -3.7314    0.0000 H   0  0  0  0  0  0  0  0  0  0  0  0
   12.4255   -4.3154    0.0000 H   0  0  0  0  0  0  0  0  0  0  0  0
   13.4365   -2.9214    0.0000 H   0  0  0  0  0  0  0  0  0  0  0  0
    2.5016    4.5183    0.0000 H   0  0  0  0  0  0  0  0  0  0  0  0
    1.6356    4.6555    0.0000 H   0  0  0  0  0  0  0  0  0  0  0  0
    1.4984    3.7894    0.0000 H   0  0  0  0  0  0  0  0  0  0  0  0
  1 11  1  0  0  0  0
  1 25  1  0  0  0  0
  2 19  2  0  0  0  0
  3 28  1  0  0  0  0
  3 29  1  0  0  0  0
  4 17  1  0  0  0  0
  4 18  1  0  0  0  0
  4 19  1  0  0  0  0
  5 16  1  0  0  0  0
  5 20  1  0  0  0  0
  5 21  1  0  0  0  0
  6 19  1  0  0  0  0
  6 25  1  0  0  0  0
  6 44  1  0  0  0  0
  7 21  2  0  0  0  0
  7 26  1  0  0  0  0
  8 23  1  0  0  0  0
  8 27  1  0  0  0  0
  8 47  1  0  0  0  0
  9 23  1  0  0  0  0
  9 26  2  0  0  0  0
 10 25  2  0  0  0  0
 10 28  1  0  0  0  0
 11 28  2  0  0  0  0
 12 13  1  0  0  0  0
 12 14  1  0  0  0  0
 12 17  1  0  0  0  0
 12 30  1  1  0  0  0
 13 15  1  0  0  0  0
 13 18  1  0  0  0  0
 13 31  1  1  0  0  0
 14 16  1  0  0  0  0
 14 32  1  0  0  0  0
 14 33  1  0  0  0  0
 15 16  1  0  0  0  0
 15 34  1  0  0  0  0
 15 35  1  0  0  0  0
 16 36  1  0  0  0  0
 17 37  1  0  0  0  0
 17 38  1  0  0  0  0
 18 39  1  0  0  0  0
 18 40  1  0  0  0  0
 20 41  1  0  0  0  0
 20 42  1  0  0  0  0
 20 43  1  0  0  0  0
 21 22  1  0  0  0  0
 22 23  2  0  0  0  0
 22 24  1  0  0  0  0
 24 27  2  0  0  0  0
 24 45  1  0  0  0  0
 26 46  1  0  0  0  0
 27 48  1  0  0  0  0
 29 49  1  0  0  0  0
 29 50  1  0  0  0  0
 29 51  1  0  0  0  0
M  END
> <PUBCHEM_COMPOUND_CID>
71622431

> <PUBCHEM_COMPOUND_CANONICALIZED>
1

> <PUBCHEM_CACTVS_COMPLEXITY>
600

> <PUBCHEM_CACTVS_HBOND_ACCEPTOR>
8

> <PUBCHEM_CACTVS_HBOND_DONOR>
2

> <PUBCHEM_CACTVS_ROTATABLE_BOND>
4

> <PUBCHEM_CACTVS_SUBSKEYS>
AAADceB78ABAAAAAAAAAAAAAAAAAAeLFiAAsAAAAAAAWAFgB/gAAHgQQQAAADSjBGwY/sN/JlACsAjJndACC0CmxAqkJ2aA4ZJiIKMJAyMEEBAhIFwLAQCEQgAAOgAAAAAAAAAAAAAAAAAAAACAACAAAAA==

> <PUBCHEM_IUPAC_OPENEYE_NAME>
(3aS,6aR)-N-(3-methoxy-1,2,4-thiadiazol-5-yl)-5-[methyl(7H-pyrrolo[2,3-d]pyrimidin-4-yl)amino]-3,3a,4,5,6,6a-hexahydro-1H-cyclopenta[c]pyrrole-2-carboxamide

> <PUBCHEM_IUPAC_CAS_NAME>
(3aS,6aR)-N-(3-methoxy-1,2,4-thiadiazol-5-yl)-5-[methyl(7H-pyrrolo[2,3-d]pyrimidin-4-yl)amino]-3,3a,4,5,6,6a-hexahydro-1H-cyclopenta[c]pyrrole-2-carboxamide

> <PUBCHEM_IUPAC_NAME_MARKUP>
(3<I>a</I><I>S</I>,6<I>a</I><I>R</I>)-<I>N</I>-(3-methoxy-1,2,4-thiadiazol-5-yl)-5-[methyl(7<I>H</I>-pyrrolo[2,3-d]pyrimidin-4-yl)amino]-3,3<I>a</I>,4,5,6,6<I>a</I>-hexahydro-1<I>H</I>-cyclopenta[c]pyrrole-2-carboxamide

> <PUBCHEM_IUPAC_NAME>
(3aS,6aR)-N-(3-methoxy-1,2,4-thiadiazol-5-yl)-5-[methyl(7H-pyrrolo[2,3-d]pyrimidin-4-yl)amino]-3,3a,4,5,6,6a-hexahydro-1H-cyclopenta[c]pyrrole-2-carboxamide

> <PUBCHEM_IUPAC_SYSTEMATIC_NAME>
(3aS,6aR)-N-(3-methoxy-1,2,4-thiadiazol-5-yl)-5-[methyl(7H-pyrrolo[2,3-d]pyrimidin-4-yl)amino]-3,3a,4,5,6,6a-hexahydro-1H-cyclopenta[c]pyrrole-2-carboxamide

> <PUBCHEM_IUPAC_TRADITIONAL_NAME>
(3aS,6aR)-N-(3-methoxy-1,2,4-thiadiazol-5-yl)-5-[methyl(7H-pyrrolo[2,3-d]pyrimidin-4-yl)amino]-3,3a,4,5,6,6a-hexahydro-1H-cyclopenta[c]pyrrole-2-carboxamide

> <PUBCHEM_IUPAC_INCHI>
InChI=1S/C18H22N8O2S/c1-25(15-13-3-4-19-14(13)20-9-21-15)12-5-10-7-26(8-11(10)6-12)18(27)23-17-22-16(28-2)24-29-17/h3-4,9-12H,5-8H2,1-2H3,(H,19,20,21)(H,22,23,24,27)/t10-,11+,12?

> <PUBCHEM_IUPAC_INCHIKEY>
DNBCBAXDWNDRNO-FOSCPWQOSA-N

> <PUBCHEM_XLOGP3_AA>
2.3

> <PUBCHEM_EXACT_MASS>
414.15864315

> <PUBCHEM_MOLECULAR_FORMULA>
C18H22N8O2S

> <PUBCHEM_MOLECULAR_WEIGHT>
414.5

> <PUBCHEM_OPENEYE_CAN_SMILES>
CN(C1CC2CN(CC2C1)C(=O)NC3=NC(=NS3)OC)C4=NC=NC5=C4C=CN5

> <PUBCHEM_OPENEYE_ISO_SMILES>
CN(C1C[C@@H]2CN(C[C@@H]2C1)C(=O)NC3=NC(=NS3)OC)C4=NC=NC5=C4C=CN5

> <PUBCHEM_CACTVS_TPSA>
140

> <PUBCHEM_MONOISOTOPIC_WEIGHT>
414.15864315

> <PUBCHEM_TOTAL_CHARGE>
0

> <PUBCHEM_HEAVY_ATOM_COUNT>
29

> <PUBCHEM_ATOM_DEF_STEREO_COUNT>
2

> <PUBCHEM_ATOM_UDEF_STEREO_COUNT>
0

> <PUBCHEM_BOND_DEF_STEREO_COUNT>
0

> <PUBCHEM_BOND_UDEF_STEREO_COUNT>
0

> <PUBCHEM_ISOTOPIC_ATOM_COUNT>
0

> <PUBCHEM_COMPONENT_COUNT>
1

> <PUBCHEM_CACTVS_TAUTO_COUNT>
-1

> <PUBCHEM_COORDINATE_TYPE>
1
5
255

> <PUBCHEM_BONDANNOTATIONS>
1  11  8
1  25  8
10  25  8
10  28  8
11  28  8
12  30  5
13  31  5
21  22  8
22  23  8
22  24  8
24  27  8
7  21  8
7  26  8
8  23  8
8  27  8
9  23  8
9  26  8

$$$$
86294743
  -OEChem-11282412102D

 58 61  0     1  0  0  0  0  0999 V2000
    3.5620   12.1524    0.0000 S   0  0  0  0  0  0  0  0  0  0  0  0
    5.9690    0.8660    0.0000 S   0  0  0  0  0  0  0  0  0  0  0  0
    3.6666    9.1579    0.0000 O   0  0  0  0  0  0  0  0  0  0  0  0
    1.0894   11.3898    0.0000 O   0  0  0  0  0  0  0  0  0  0  0  0
    6.8350    1.3660    0.0000 O   0  0  0  0  0  0  0  0  0  0  0  0
    5.1030    0.3660    0.0000 O   0  0  0  0  0  0  0  0  0  0  0  0
    5.4690    1.7320    0.0000 O   0  0  0  0  0  0  0  0  0  0  0  0
    6.4690    0.0000    0.0000 O   0  0  0  0  0  0  0  0  0  0  0  0
    5.3986    9.1579    0.0000 N   0  0  0  0  0  0  0  0  0  0  0  0
    8.9222    7.1236    0.0000 N   0  0  3  0  0  0  0  0  0  0  0  0
    4.5326   10.6579    0.0000 N   0  0  0  0  0  0  0  0  0  0  0  0
    8.0562    5.6236    0.0000 N   0  0  0  0  0  0  0  0  0  0  0  0
   10.7344    4.3188    0.0000 N   0  0  0  0  0  0  0  0  0  0  0  0
    8.9222    4.1236    0.0000 N   0  0  0  0  0  0  0  0  0  0  0  0
    2.7530   10.7511    0.0000 N   0  0  0  0  0  0  0  0  0  0  0  0
    2.5839   12.3603    0.0000 N   0  0  0  0  0  0  0  0  0  0  0  0
    6.9735    8.8260    0.0000 C   0  0  2  0  0  0  0  0  0  0  0  0
    6.4735    7.9600    0.0000 C   0  0  1  0  0  0  0  0  0  0  0  0
    7.9516    8.6181    0.0000 C   0  0  0  0  0  0  0  0  0  0  0  0
    7.1426    7.2168    0.0000 C   0  0  0  0  0  0  0  0  0  0  0  0
    8.0562    7.6236    0.0000 C   0  0  0  0  0  0  0  0  0  0  0  0
    6.3064    9.5630    0.0000 C   0  0  0  0  0  0  0  0  0  0  0  0
    5.5017    8.1692    0.0000 C   0  0  0  0  0  0  0  0  0  0  0  0
    4.5326    9.6579    0.0000 C   0  0  0  0  0  0  0  0  0  0  0  0
    9.7882    7.6236    0.0000 C   0  0  0  0  0  0  0  0  0  0  0  0
    8.9222    6.1236    0.0000 C   0  0  0  0  0  0  0  0  0  0  0  0
    9.7882    5.6236    0.0000 C   0  0  0  0  0  0  0  0  0  0  0  0
    9.7882    4.6236    0.0000 C   0  0  0  0  0  0  0  0  0  0  0  0
   10.7344    5.9283    0.0000 C   0  0  0  0  0  0  0  0  0  0  0  0
    3.6666   11.1579    0.0000 C   0  0  0  0  0  0  0  0  0  0  0  0
    8.0562    4.6236    0.0000 C   0  0  0  0  0  0  0  0  0  0  0  0
   11.3181    5.1236    0.0000 C   0  0  0  0  0  0  0  0  0  0  0  0
    2.0839   11.4943    0.0000 C   0  0  0  0  0  0  0  0  0  0  0  0
    0.5016   12.1988    0.0000 C   0  0  0  0  0  0  0  0  0  0  0  0
    7.3975    9.5626    0.0000 H   0  0  0  0  0  0  0  0  0  0  0  0
    6.0475    7.2244    0.0000 H   0  0  0  0  0  0  0  0  0  0  0  0
    8.5716    8.6181    0.0000 H   0  0  0  0  0  0  0  0  0  0  0  0
    8.0165    9.2347    0.0000 H   0  0  0  0  0  0  0  0  0  0  0  0
    6.6410    6.8524    0.0000 H   0  0  0  0  0  0  0  0  0  0  0  0
    7.4526    6.6799    0.0000 H   0  0  0  0  0  0  0  0  0  0  0  0
    8.5762    7.9612    0.0000 H   0  0  0  0  0  0  0  0  0  0  0  0
    6.8073    9.9284    0.0000 H   0  0  0  0  0  0  0  0  0  0  0  0
    5.9956   10.0995    0.0000 H   0  0  0  0  0  0  0  0  0  0  0  0
    4.8817    8.1700    0.0000 H   0  0  0  0  0  0  0  0  0  0  0  0
    5.4356    7.5527    0.0000 H   0  0  0  0  0  0  0  0  0  0  0  0
   10.0982    7.0866    0.0000 H   0  0  0  0  0  0  0  0  0  0  0  0
   10.3252    7.9336    0.0000 H   0  0  0  0  0  0  0  0  0  0  0  0
    9.4782    8.1605    0.0000 H   0  0  0  0  0  0  0  0  0  0  0  0
    5.0695   10.9679    0.0000 H   0  0  0  0  0  0  0  0  0  0  0  0
   10.9271    6.5176    0.0000 H   0  0  0  0  0  0  0  0  0  0  0  0
    7.5192    4.3136    0.0000 H   0  0  0  0  0  0  0  0  0  0  0  0
   10.9271    3.7295    0.0000 H   0  0  0  0  0  0  0  0  0  0  0  0
   11.9381    5.1236    0.0000 H   0  0  0  0  0  0  0  0  0  0  0  0
    1.0032   12.5632    0.0000 H   0  0  0  0  0  0  0  0  0  0  0  0
    0.1372   12.7004    0.0000 H   0  0  0  0  0  0  0  0  0  0  0  0
    0.0000   11.8344    0.0000 H   0  0  0  0  0  0  0  0  0  0  0  0
    7.3720    1.0560    0.0000 H   0  0  0  0  0  0  0  0  0  0  0  0
    4.5661    0.6760    0.0000 H   0  0  0  0  0  0  0  0  0  0  0  0
  1 16  1  0  0  0  0
  1 30  1  0  0  0  0
  2  5  1  0  0  0  0
  2  6  1  0  0  0  0
  2  7  2  0  0  0  0
  2  8  2  0  0  0  0
  3 24  2  0  0  0  0
  4 33  1  0  0  0  0
  4 34  1  0  0  0  0
  5 57  1  0  0  0  0
  6 58  1  0  0  0  0
  9 22  1  0  0  0  0
  9 23  1  0  0  0  0
  9 24  1  0  0  0  0
 10 21  1  0  0  0  0
 10 25  1  0  0  0  0
 10 26  1  0  0  0  0
 11 24  1  0  0  0  0
 11 30  1  0  0  0  0
 11 49  1  0  0  0  0
 12 26  2  0  0  0  0
 12 31  1  0  0  0  0
 13 28  1  0  0  0  0
 13 32  1  0  0  0  0
 13 52  1  0  0  0  0
 14 28  1  0  0  0  0
 14 31  2  0  0  0  0
 15 30  2  0  0  0  0
 15 33  1  0  0  0  0
 16 33  2  0  0  0  0
 17 18  1  0  0  0  0
 17 19  1  0  0  0  0
 17 22  1  0  0  0  0
 17 35  1  6  0  0  0
 18 20  1  0  0  0  0
 18 23  1  0  0  0  0
 18 36  1  6  0  0  0
 19 21  1  0  0  0  0
 19 37  1  0  0  0  0
 19 38  1  0  0  0  0
 20 21  1  0  0  0  0
 20 39  1  0  0  0  0
 20 40  1  0  0  0  0
 21 41  1  0  0  0  0
 22 42  1  0  0  0  0
 22 43  1  0  0  0  0
 23 44  1  0  0  0  0
 23 45  1  0  0  0  0
 25 46  1  0  0  0  0
 25 47  1  0  0  0  0
 25 48  1  0  0  0  0
 26 27  1  0  0  0  0
 27 28  2  0  0  0  0
 27 29  1  0  0  0  0
 29 32  2  0  0  0  0
 29 50  1  0  0  0  0
 31 51  1  0  0  0  0
 32 53  1  0  0  0  0
 34 54  1  0  0  0  0
 34 55  1  0  0  0  0
 34 56  1  0  0  0  0
M  END
> <PUBCHEM_COMPOUND_CID>
86294743

> <PUBCHEM_COMPOUND_CANONICALIZED>
1

> <PUBCHEM_CACTVS_COMPLEXITY>
682

> <PUBCHEM_CACTVS_HBOND_ACCEPTOR>
12

> <PUBCHEM_CACTVS_HBOND_DONOR>
4

> <PUBCHEM_CACTVS_ROTATABLE_BOND>
4

> <PUBCHEM_CACTVS_SUBSKEYS>
AAADceB7+ABgAAAAAAAAAAAAAAAAAeLFiAAsAAAAAAAWAFgB/gAAHgQQSAAADSjBGwY/sN/JlICsAjJndDCC0CmxAqkJ2aA4ZJiIKMJAyMEEBAhIFwLAQCEQgAAOgAAAAAAAAAAAAAAAAAAAACAACAAAAA==

> <PUBCHEM_IUPAC_OPENEYE_NAME>
(3aR,6aS)-N-(3-methoxy-1,2,4-thiadiazol-5-yl)-5-[methyl(7H-pyrrolo[2,3-d]pyrimidin-4-yl)amino]-3,3a,4,5,6,6a-hexahydro-1H-cyclopenta[c]pyrrole-2-carboxamide;sulfuric acid

> <PUBCHEM_IUPAC_CAS_NAME>
(3aR,6aS)-N-(3-methoxy-1,2,4-thiadiazol-5-yl)-5-[methyl(7H-pyrrolo[2,3-d]pyrimidin-4-yl)amino]-3,3a,4,5,6,6a-hexahydro-1H-cyclopenta[c]pyrrole-2-carboxamide;sulfuric acid

> <PUBCHEM_IUPAC_NAME_MARKUP>
(3<I>a</I><I>R</I>,6<I>a</I><I>S</I>)-<I>N</I>-(3-methoxy-1,2,4-thiadiazol-5-yl)-5-[methyl(7<I>H</I>-pyrrolo[2,3-d]pyrimidin-4-yl)amino]-3,3<I>a</I>,4,5,6,6<I>a</I>-hexahydro-1<I>H</I>-cyclopenta[c]pyrrole-2-carboxamide;sulfuric acid

> <PUBCHEM_IUPAC_NAME>
(3aR,6aS)-N-(3-methoxy-1,2,4-thiadiazol-5-yl)-5-[methyl(7H-pyrrolo[2,3-d]pyrimidin-4-yl)amino]-3,3a,4,5,6,6a-hexahydro-1H-cyclopenta[c]pyrrole-2-carboxamide;sulfuric acid

> <PUBCHEM_IUPAC_SYSTEMATIC_NAME>
(3aR,6aS)-N-(3-methoxy-1,2,4-thiadiazol-5-yl)-5-[methyl(7H-pyrrolo[2,3-d]pyrimidin-4-yl)amino]-3,3a,4,5,6,6a-hexahydro-1H-cyclopenta[c]pyrrole-2-carboxamide;sulfuric acid

> <PUBCHEM_IUPAC_TRADITIONAL_NAME>
(3aR,6aS)-N-(3-methoxy-1,2,4-thiadiazol-5-yl)-5-[methyl(7H-pyrrolo[2,3-d]pyrimidin-4-yl)amino]-3,3a,4,5,6,6a-hexahydro-1H-cyclopenta[c]pyrrole-2-carboxamide;sulfuric acid

> <PUBCHEM_IUPAC_INCHI>
InChI=1S/C18H22N8O2S.H2O4S/c1-25(15-13-3-4-19-14(13)20-9-21-15)12-5-10-7-26(8-11(10)6-12)18(27)23-17-22-16(28-2)24-29-17;1-5(2,3)4/h3-4,9-12H,5-8H2,1-2H3,(H,19,20,21)(H,22,23,24,27);(H2,1,2,3,4)/t10-,11+,12?;

> <PUBCHEM_IUPAC_INCHIKEY>
XVVWQCLRGHYWPI-ZLURZNERSA-N

> <PUBCHEM_EXACT_MASS>
512.12602286

> <PUBCHEM_MOLECULAR_FORMULA>
C18H24N8O6S2

> <PUBCHEM_MOLECULAR_WEIGHT>
512.6

> <PUBCHEM_OPENEYE_CAN_SMILES>
CN(C1CC2CN(CC2C1)C(=O)NC3=NC(=NS3)OC)C4=NC=NC5=C4C=CN5.OS(=O)(=O)O

> <PUBCHEM_OPENEYE_ISO_SMILES>
CN(C1C[C@@H]2CN(C[C@@H]2C1)C(=O)NC3=NC(=NS3)OC)C4=NC=NC5=C4C=CN5.OS(=O)(=O)O

> <PUBCHEM_CACTVS_TPSA>
223

> <PUBCHEM_MONOISOTOPIC_WEIGHT>
512.12602286

> <PUBCHEM_TOTAL_CHARGE>
0

> <PUBCHEM_HEAVY_ATOM_COUNT>
34

> <PUBCHEM_ATOM_DEF_STEREO_COUNT>
2

> <PUBCHEM_ATOM_UDEF_STEREO_COUNT>
0

> <PUBCHEM_BOND_DEF_STEREO_COUNT>
0

> <PUBCHEM_BOND_UDEF_STEREO_COUNT>
0

> <PUBCHEM_ISOTOPIC_ATOM_COUNT>
0

> <PUBCHEM_COMPONENT_COUNT>
2

> <PUBCHEM_CACTVS_TAUTO_COUNT>
-1

> <PUBCHEM_COORDINATE_TYPE>
1
5
255

> <PUBCHEM_BONDANNOTATIONS>
1  16  8
1  30  8
12  26  8
12  31  8
13  28  8
13  32  8
14  28  8
14  31  8
15  30  8
15  33  8
16  33  8
17  35  6
18  36  6
26  27  8
27  28  8
27  29  8
29  32  8

$$$$
155801569
  -OEChem-11282412102D

138143  0     0  0  0  0  0  0999 V2000
   14.7550    3.5565    0.0000 F   0  0  0  0  0  0  0  0  0  0  0  0
   15.6407    4.6590    0.0000 F   0  0  0  0  0  0  0  0  0  0  0  0
   14.5383    5.5447    0.0000 F   0  0  0  0  0  0  0  0  0  0  0  0
   14.7550   11.6187    0.0000 F   0  0  0  0  0  0  0  0  0  0  0  0
   15.6407   12.7212    0.0000 F   0  0  0  0  0  0  0  0  0  0  0  0
   14.5383   13.6070    0.0000 F   0  0  0  0  0  0  0  0  0  0  0  0
   11.1828    3.6701    0.0000 O   0  0  0  0  0  0  0  0  0  0  0  0
   11.1828   11.7323    0.0000 O   0  0  0  0  0  0  0  0  0  0  0  0
    9.3462    3.6575    0.0000 O   0  0  0  0  0  0  0  0  0  0  0  0
    9.3462   11.7198    0.0000 O   0  0  0  0  0  0  0  0  0  0  0  0
    0.6200    3.6200    0.0000 O   0  0  0  0  0  0  0  0  0  0  0  0
    0.6200   11.6823    0.0000 O   0  0  0  0  0  0  0  0  0  0  0  0
    0.6200    1.6200    0.0000 O   0  0  0  0  0  0  0  0  0  0  0  0
    0.6200    9.6823    0.0000 O   0  0  0  0  0  0  0  0  0  0  0  0
   10.8515   17.1245    0.0000 O   0  0  0  0  0  0  0  0  0  0  0  0
    4.7893   17.6245    0.0000 O   0  0  0  0  0  0  0  0  0  0  0  0
    9.9854   18.6245    0.0000 O   0  0  0  0  0  0  0  0  0  0  0  0
    5.6553   16.1245    0.0000 O   0  0  0  0  0  0  0  0  0  0  0  0
   12.1617    3.4659    0.0000 N   0  0  0  0  0  0  0  0  0  0  0  0
   12.1617   11.5282    0.0000 N   0  0  0  0  0  0  0  0  0  0  0  0
   10.2065    5.1608    0.0000 N   0  0  0  0  0  0  0  0  0  0  0  0
   10.2065   13.2231    0.0000 N   0  0  0  0  0  0  0  0  0  0  0  0
    5.8783    4.6441    0.0000 N   0  0  0  0  0  0  0  0  0  0  0  0
    5.8783   12.7064    0.0000 N   0  0  0  0  0  0  0  0  0  0  0  0
    4.1120    1.5853    0.0000 N   0  0  0  0  0  0  0  0  0  0  0  0
    4.1120    9.6476    0.0000 N   0  0  0  0  0  0  0  0  0  0  0  0
   13.6525    4.4422    0.0000 C   0  0  0  0  0  0  0  0  0  0  0  0
   13.6525   12.5045    0.0000 C   0  0  0  0  0  0  0  0  0  0  0  0
   12.6584    4.3339    0.0000 C   0  0  0  0  0  0  0  0  0  0  0  0
   12.6584   12.3961    0.0000 C   0  0  0  0  0  0  0  0  0  0  0  0
   14.6466    4.5506    0.0000 C   0  0  0  0  0  0  0  0  0  0  0  0
   14.6466   12.6128    0.0000 C   0  0  0  0  0  0  0  0  0  0  0  0
   13.7609    3.4481    0.0000 C   0  0  0  0  0  0  0  0  0  0  0  0
   13.5441    5.4363    0.0000 C   0  0  0  0  0  0  0  0  0  0  0  0
   13.7609   11.5104    0.0000 C   0  0  0  0  0  0  0  0  0  0  0  0
   13.5441   13.4986    0.0000 C   0  0  0  0  0  0  0  0  0  0  0  0
   11.9864    5.0744    0.0000 C   0  0  0  0  0  0  0  0  0  0  0  0
   11.9864   13.1367    0.0000 C   0  0  0  0  0  0  0  0  0  0  0  0
   11.0744    4.6642    0.0000 C   0  0  0  0  0  0  0  0  0  0  0  0
   11.0744   12.7264    0.0000 C   0  0  0  0  0  0  0  0  0  0  0  0
    9.3424    4.6575    0.0000 C   0  0  0  0  0  0  0  0  0  0  0  0
    9.3424   12.7198    0.0000 C   0  0  0  0  0  0  0  0  0  0  0  0
    8.4744    5.1541    0.0000 C   0  0  0  0  0  0  0  0  0  0  0  0
    8.4744   13.2164    0.0000 C   0  0  0  0  0  0  0  0  0  0  0  0
    7.6104    4.6508    0.0000 C   0  0  0  0  0  0  0  0  0  0  0  0
    7.6104   12.7131    0.0000 C   0  0  0  0  0  0  0  0  0  0  0  0
    7.6142    3.6508    0.0000 C   0  0  0  0  0  0  0  0  0  0  0  0
    7.6142   11.7131    0.0000 C   0  0  0  0  0  0  0  0  0  0  0  0
    6.7424    5.1475    0.0000 C   0  0  0  0  0  0  0  0  0  0  0  0
    6.7424   13.2097    0.0000 C   0  0  0  0  0  0  0  0  0  0  0  0
    5.8822    3.6442    0.0000 C   0  0  0  0  0  0  0  0  0  0  0  0
    5.8822   11.7064    0.0000 C   0  0  0  0  0  0  0  0  0  0  0  0
    6.7501    3.1475    0.0000 C   0  0  0  0  0  0  0  0  0  0  0  0
    6.7501   11.2098    0.0000 C   0  0  0  0  0  0  0  0  0  0  0  0
    5.0181    3.1408    0.0000 C   0  0  0  0  0  0  0  0  0  0  0  0
    5.0181   11.2031    0.0000 C   0  0  0  0  0  0  0  0  0  0  0  0
    3.2181    3.1200    0.0000 C   0  0  0  0  0  0  0  0  0  0  0  0
    3.2181   11.1823    0.0000 C   0  0  0  0  0  0  0  0  0  0  0  0
    4.1120    3.6547    0.0000 C   0  0  0  0  0  0  0  0  0  0  0  0
    4.1120   11.7169    0.0000 C   0  0  0  0  0  0  0  0  0  0  0  0
    3.2181    2.1200    0.0000 C   0  0  0  0  0  0  0  0  0  0  0  0
    3.2181   10.1823    0.0000 C   0  0  0  0  0  0  0  0  0  0  0  0
    5.0181    2.0992    0.0000 C   0  0  0  0  0  0  0  0  0  0  0  0
    5.0181   10.1614    0.0000 C   0  0  0  0  0  0  0  0  0  0  0  0
    8.2534   17.6245    0.0000 C   0  0  0  0  0  0  0  0  0  0  0  0
    7.3874   17.1245    0.0000 C   0  0  0  0  0  0  0  0  0  0  0  0
    2.3521    3.6200    0.0000 C   0  0  0  0  0  0  0  0  0  0  0  0
    2.3521   11.6823    0.0000 C   0  0  0  0  0  0  0  0  0  0  0  0
    2.3521    1.6200    0.0000 C   0  0  0  0  0  0  0  0  0  0  0  0
    2.3521    9.6823    0.0000 C   0  0  0  0  0  0  0  0  0  0  0  0
    1.4860    3.1200    0.0000 C   0  0  0  0  0  0  0  0  0  0  0  0
    1.4860   11.1823    0.0000 C   0  0  0  0  0  0  0  0  0  0  0  0
    1.4860    2.1200    0.0000 C   0  0  0  0  0  0  0  0  0  0  0  0
    1.4860   10.1823    0.0000 C   0  0  0  0  0  0  0  0  0  0  0  0
    9.1194   17.1245    0.0000 C   0  0  0  0  0  0  0  0  0  0  0  0
    6.5213   17.6245    0.0000 C   0  0  0  0  0  0  0  0  0  0  0  0
    9.9854   17.6245    0.0000 C   0  0  0  0  0  0  0  0  0  0  0  0
    5.6553   17.1245    0.0000 C   0  0  0  0  0  0  0  0  0  0  0  0
    0.6200    4.6200    0.0000 C   0  0  0  0  0  0  0  0  0  0  0  0
    0.6200   12.6823    0.0000 C   0  0  0  0  0  0  0  0  0  0  0  0
    0.6200    0.6200    0.0000 C   0  0  0  0  0  0  0  0  0  0  0  0
    0.6200    8.6823    0.0000 C   0  0  0  0  0  0  0  0  0  0  0  0
   13.1445    3.3809    0.0000 H   0  0  0  0  0  0  0  0  0  0  0  0
   13.8281    2.8318    0.0000 H   0  0  0  0  0  0  0  0  0  0  0  0
   14.3772    3.5153    0.0000 H   0  0  0  0  0  0  0  0  0  0  0  0
   14.1605    5.5035    0.0000 H   0  0  0  0  0  0  0  0  0  0  0  0
   13.4770    6.0527    0.0000 H   0  0  0  0  0  0  0  0  0  0  0  0
   12.9278    5.3692    0.0000 H   0  0  0  0  0  0  0  0  0  0  0  0
   13.1445   11.4432    0.0000 H   0  0  0  0  0  0  0  0  0  0  0  0
   13.8281   10.8940    0.0000 H   0  0  0  0  0  0  0  0  0  0  0  0
   14.3772   11.5776    0.0000 H   0  0  0  0  0  0  0  0  0  0  0  0
   14.1605   13.5658    0.0000 H   0  0  0  0  0  0  0  0  0  0  0  0
   13.4770   14.1149    0.0000 H   0  0  0  0  0  0  0  0  0  0  0  0
   12.9278   13.4314    0.0000 H   0  0  0  0  0  0  0  0  0  0  0  0
   12.1130    5.6814    0.0000 H   0  0  0  0  0  0  0  0  0  0  0  0
   12.1130   13.7436    0.0000 H   0  0  0  0  0  0  0  0  0  0  0  0
   10.2041    5.7808    0.0000 H   0  0  0  0  0  0  0  0  0  0  0  0
   10.2041   13.8431    0.0000 H   0  0  0  0  0  0  0  0  0  0  0  0
    8.8712    5.6306    0.0000 H   0  0  0  0  0  0  0  0  0  0  0  0
    8.0741    5.6276    0.0000 H   0  0  0  0  0  0  0  0  0  0  0  0
    8.8712   13.6929    0.0000 H   0  0  0  0  0  0  0  0  0  0  0  0
    8.0741   13.6898    0.0000 H   0  0  0  0  0  0  0  0  0  0  0  0
    8.1523    3.3429    0.0000 H   0  0  0  0  0  0  0  0  0  0  0  0
    8.1523   11.4052    0.0000 H   0  0  0  0  0  0  0  0  0  0  0  0
    6.7400    5.7675    0.0000 H   0  0  0  0  0  0  0  0  0  0  0  0
    6.7400   13.8297    0.0000 H   0  0  0  0  0  0  0  0  0  0  0  0
    6.7525    2.5275    0.0000 H   0  0  0  0  0  0  0  0  0  0  0  0
    6.7525   10.5898    0.0000 H   0  0  0  0  0  0  0  0  0  0  0  0
    4.1048    4.2746    0.0000 H   0  0  0  0  0  0  0  0  0  0  0  0
    4.1048   12.3369    0.0000 H   0  0  0  0  0  0  0  0  0  0  0  0
    5.5538    1.7871    0.0000 H   0  0  0  0  0  0  0  0  0  0  0  0
    5.5538    9.8494    0.0000 H   0  0  0  0  0  0  0  0  0  0  0  0
    8.6519   18.0995    0.0000 H   0  0  0  0  0  0  0  0  0  0  0  0
    7.8548   18.0995    0.0000 H   0  0  0  0  0  0  0  0  0  0  0  0
    6.9888   16.6496    0.0000 H   0  0  0  0  0  0  0  0  0  0  0  0
    7.7859   16.6496    0.0000 H   0  0  0  0  0  0  0  0  0  0  0  0
    2.3521    4.2400    0.0000 H   0  0  0  0  0  0  0  0  0  0  0  0
    2.3521   12.3023    0.0000 H   0  0  0  0  0  0  0  0  0  0  0  0
    2.3521    1.0000    0.0000 H   0  0  0  0  0  0  0  0  0  0  0  0
    2.3521    9.0623    0.0000 H   0  0  0  0  0  0  0  0  0  0  0  0
    8.7209   16.6496    0.0000 H   0  0  0  0  0  0  0  0  0  0  0  0
    9.5179   16.6496    0.0000 H   0  0  0  0  0  0  0  0  0  0  0  0
    6.9199   18.0995    0.0000 H   0  0  0  0  0  0  0  0  0  0  0  0
    6.1228   18.0995    0.0000 H   0  0  0  0  0  0  0  0  0  0  0  0
    1.2400    4.6200    0.0000 H   0  0  0  0  0  0  0  0  0  0  0  0
    0.6200    5.2400    0.0000 H   0  0  0  0  0  0  0  0  0  0  0  0
    0.0000    4.6200    0.0000 H   0  0  0  0  0  0  0  0  0  0  0  0
    1.2400   12.6823    0.0000 H   0  0  0  0  0  0  0  0  0  0  0  0
    0.6200   13.3023    0.0000 H   0  0  0  0  0  0  0  0  0  0  0  0
    0.0000   12.6823    0.0000 H   0  0  0  0  0  0  0  0  0  0  0  0
    0.0000    0.6200    0.0000 H   0  0  0  0  0  0  0  0  0  0  0  0
    0.6200    0.0000    0.0000 H   0  0  0  0  0  0  0  0  0  0  0  0
    1.2400    0.6200    0.0000 H   0  0  0  0  0  0  0  0  0  0  0  0
    0.0000    8.6823    0.0000 H   0  0  0  0  0  0  0  0  0  0  0  0
    0.6200    8.0623    0.0000 H   0  0  0  0  0  0  0  0  0  0  0  0
    1.2400    8.6823    0.0000 H   0  0  0  0  0  0  0  0  0  0  0  0
   11.3884   17.4345    0.0000 H   0  0  0  0  0  0  0  0  0  0  0  0
    4.2523   17.3145    0.0000 H   0  0  0  0  0  0  0  0  0  0  0  0
  1 31  1  0  0  0  0
  2 31  1  0  0  0  0
  3 31  1  0  0  0  0
  4 32  1  0  0  0  0
  5 32  1  0  0  0  0
  6 32  1  0  0  0  0
  7 19  1  0  0  0  0
  7 39  1  0  0  0  0
  8 20  1  0  0  0  0
  8 40  1  0  0  0  0
  9 41  2  0  0  0  0
 10 42  2  0  0  0  0
 11 71  1  0  0  0  0
 11 79  1  0  0  0  0
 12 72  1  0  0  0  0
 12 80  1  0  0  0  0
 13 73  1  0  0  0  0
 13 81  1  0  0  0  0
 14 74  1  0  0  0  0
 14 82  1  0  0  0  0
 15 77  1  0  0  0  0
 15137  1  0  0  0  0
 16 78  1  0  0  0  0
 16138  1  0  0  0  0
 17 77  2  0  0  0  0
 18 78  2  0  0  0  0
 19 29  2  0  0  0  0
 20 30  2  0  0  0  0
 21 39  1  0  0  0  0
 21 41  1  0  0  0  0
 21 97  1  0  0  0  0
 22 40  1  0  0  0  0
 22 42  1  0  0  0  0
 22 98  1  0  0  0  0
 23 49  1  0  0  0  0
 23 51  2  0  0  0  0
 24 50  1  0  0  0  0
 24 52  2  0  0  0  0
 25 61  2  0  0  0  0
 25 63  1  0  0  0  0
 26 62  2  0  0  0  0
 26 64  1  0  0  0  0
 27 29  1  0  0  0  0
 27 31  1  0  0  0  0
 27 33  1  0  0  0  0
 27 34  1  0  0  0  0
 28 30  1  0  0  0  0
 28 32  1  0  0  0  0
 28 35  1  0  0  0  0
 28 36  1  0  0  0  0
 29 37  1  0  0  0  0
 30 38  1  0  0  0  0
 33 83  1  0  0  0  0
 33 84  1  0  0  0  0
 33 85  1  0  0  0  0
 34 86  1  0  0  0  0
 34 87  1  0  0  0  0
 34 88  1  0  0  0  0
 35 89  1  0  0  0  0
 35 90  1  0  0  0  0
 35 91  1  0  0  0  0
 36 92  1  0  0  0  0
 36 93  1  0  0  0  0
 36 94  1  0  0  0  0
 37 39  2  0  0  0  0
 37 95  1  0  0  0  0
 38 40  2  0  0  0  0
 38 96  1  0  0  0  0
 41 43  1  0  0  0  0
 42 44  1  0  0  0  0
 43 45  1  0  0  0  0
 43 99  1  0  0  0  0
 43100  1  0  0  0  0
 44 46  1  0  0  0  0
 44101  1  0  0  0  0
 44102  1  0  0  0  0
 45 47  1  0  0  0  0
 45 49  2  0  0  0  0
 46 48  1  0  0  0  0
 46 50  2  0  0  0  0
 47 53  2  0  0  0  0
 47103  1  0  0  0  0
 48 54  2  0  0  0  0
 48104  1  0  0  0  0
 49105  1  0  0  0  0
 50106  1  0  0  0  0
 51 53  1  0  0  0  0
 51 55  1  0  0  0  0
 52 54  1  0  0  0  0
 52 56  1  0  0  0  0
 53107  1  0  0  0  0
 54108  1  0  0  0  0
 55 59  1  0  0  0  0
 55 63  2  0  0  0  0
 56 60  1  0  0  0  0
 56 64  2  0  0  0  0
 57 59  2  0  0  0  0
 57 61  1  0  0  0  0
 57 67  1  0  0  0  0
 58 60  2  0  0  0  0
 58 62  1  0  0  0  0
 58 68  1  0  0  0  0
 59109  1  0  0  0  0
 60110  1  0  0  0  0
 61 69  1  0  0  0  0
 62 70  1  0  0  0  0
 63111  1  0  0  0  0
 64112  1  0  0  0  0
 65 66  1  0  0  0  0
 65 75  1  0  0  0  0
 65113  1  0  0  0  0
 65114  1  0  0  0  0
 66 76  1  0  0  0  0
 66115  1  0  0  0  0
 66116  1  0  0  0  0
 67 71  2  0  0  0  0
 67117  1  0  0  0  0
 68 72  2  0  0  0  0
 68118  1  0  0  0  0
 69 73  2  0  0  0  0
 69119  1  0  0  0  0
 70 74  2  0  0  0  0
 70120  1  0  0  0  0
 71 73  1  0  0  0  0
 72 74  1  0  0  0  0
 75 77  1  0  0  0  0
 75121  1  0  0  0  0
 75122  1  0  0  0  0
 76 78  1  0  0  0  0
 76123  1  0  0  0  0
 76124  1  0  0  0  0
 79125  1  0  0  0  0
 79126  1  0  0  0  0
 79127  1  0  0  0  0
 80128  1  0  0  0  0
 80129  1  0  0  0  0
 80130  1  0  0  0  0
 81131  1  0  0  0  0
 81132  1  0  0  0  0
 81133  1  0  0  0  0
 82134  1  0  0  0  0
 82135  1  0  0  0  0
 82136  1  0  0  0  0
M  END
> <PUBCHEM_COMPOUND_CID>
155801569

> <PUBCHEM_COMPOUND_CANONICALIZED>
1

> <PUBCHEM_CACTVS_COMPLEXITY>
869

> <PUBCHEM_CACTVS_HBOND_ACCEPTOR>
24

> <PUBCHEM_CACTVS_HBOND_DONOR>
4

> <PUBCHEM_CACTVS_ROTATABLE_BOND>
19

> <PUBCHEM_CACTVS_SUBSKEYS>
AAADcfB//cAAAAAAAAAAAAAAAAAAAWLAAAA8eLFiAAAAAACx/gAAHwAUCAAADgzBnhY+zvLYFgCpAzX3XgCCiCA1IiAo2CE+7NsNJvrE9duEdapm1DnK6Ue82POPIEABAgACQABAgAIEAASAAAAAAAAAAA==

> <PUBCHEM_IUPAC_OPENEYE_NAME>
adipic acid;2-[6-(6,7-dimethoxy-3-quinolyl)-3-pyridyl]-N-[3-(2,2,2-trifluoro-1,1-dimethyl-ethyl)isoxazol-5-yl]acetamide

> <PUBCHEM_IUPAC_CAS_NAME>
2-[6-(6,7-dimethoxy-3-quinolinyl)-3-pyridinyl]-N-[3-(1,1,1-trifluoro-2-methylpropan-2-yl)-5-isoxazolyl]acetamide;hexanedioic acid

> <PUBCHEM_IUPAC_NAME_MARKUP>
2-[6-(6,7-dimethoxyquinolin-3-yl)pyridin-3-yl]-<I>N</I>-[3-(1,1,1-trifluoro-2-methylpropan-2-yl)-1,2-oxazol-5-yl]acetamide;hexanedioic acid

> <PUBCHEM_IUPAC_NAME>
2-[6-(6,7-dimethoxyquinolin-3-yl)pyridin-3-yl]-N-[3-(1,1,1-trifluoro-2-methylpropan-2-yl)-1,2-oxazol-5-yl]acetamide;hexanedioic acid

> <PUBCHEM_IUPAC_SYSTEMATIC_NAME>
2-[6-(6,7-dimethoxyquinolin-3-yl)pyridin-3-yl]-N-[3-[1,1,1-tris(fluoranyl)-2-methyl-propan-2-yl]-1,2-oxazol-5-yl]ethanamide;hexanedioic acid

> <PUBCHEM_IUPAC_TRADITIONAL_NAME>
adipic acid;2-[6-(6,7-dimethoxy-3-quinolyl)-3-pyridyl]-N-[3-(2,2,2-trifluoro-1,1-dimethyl-ethyl)isoxazol-5-yl]acetamide

> <PUBCHEM_IUPAC_INCHI>
InChI=1S/2C25H23F3N4O4.C6H10O4/c2*1-24(2,25(26,27)28)21-11-23(36-32-21)31-22(33)7-14-5-6-17(29-12-14)16-8-15-9-19(34-3)20(35-4)10-18(15)30-13-16;7-5(8)3-1-2-4-6(9)10/h2*5-6,8-13H,7H2,1-4H3,(H,31,33);1-4H2,(H,7,8)(H,9,10)

> <PUBCHEM_IUPAC_INCHIKEY>
KIKHVJAFGVCFGH-UHFFFAOYSA-N

> <PUBCHEM_EXACT_MASS>
1146.39218822

> <PUBCHEM_MOLECULAR_FORMULA>
C56H56F6N8O12

> <PUBCHEM_MOLECULAR_WEIGHT>
1147.1

> <PUBCHEM_OPENEYE_CAN_SMILES>
CC(C)(C1=NOC(=C1)NC(=O)CC2=CN=C(C=C2)C3=CN=C4C=C(C(=CC4=C3)OC)OC)C(F)(F)F.CC(C)(C1=NOC(=C1)NC(=O)CC2=CN=C(C=C2)C3=CN=C4C=C(C(=CC4=C3)OC)OC)C(F)(F)F.C(CCC(=O)O)CC(=O)O

> <PUBCHEM_OPENEYE_ISO_SMILES>
CC(C)(C1=NOC(=C1)NC(=O)CC2=CN=C(C=C2)C3=CN=C4C=C(C(=CC4=C3)OC)OC)C(F)(F)F.CC(C)(C1=NOC(=C1)NC(=O)CC2=CN=C(C=C2)C3=CN=C4C=C(C(=CC4=C3)OC)OC)C(F)(F)F.C(CCC(=O)O)CC(=O)O

> <PUBCHEM_CACTVS_TPSA>
273

> <PUBCHEM_MONOISOTOPIC_WEIGHT>
1146.39218822

> <PUBCHEM_TOTAL_CHARGE>
0

> <PUBCHEM_HEAVY_ATOM_COUNT>
82

> <PUBCHEM_ATOM_DEF_STEREO_COUNT>
0

> <PUBCHEM_ATOM_UDEF_STEREO_COUNT>
0

> <PUBCHEM_BOND_DEF_STEREO_COUNT>
0

> <PUBCHEM_BOND_UDEF_STEREO_COUNT>
0

> <PUBCHEM_ISOTOPIC_ATOM_COUNT>
0

> <PUBCHEM_COMPONENT_COUNT>
3

> <PUBCHEM_CACTVS_TAUTO_COUNT>
-1

> <PUBCHEM_COORDINATE_TYPE>
1
5
255

> <PUBCHEM_BONDANNOTATIONS>
19  29  8
20  30  8
23  49  8
23  51  8
24  50  8
24  52  8
25  61  8
25  63  8
26  62  8
26  64  8
29  37  8
30  38  8
37  39  8
38  40  8
45  47  8
45  49  8
46  48  8
46  50  8
47  53  8
48  54  8
51  53  8
52  54  8
55  59  8
55  63  8
56  60  8
56  64  8
57  59  8
57  61  8
57  67  8
58  60  8
58  62  8
58  68  8
61  69  8
62  70  8
67  71  8
68  72  8
69  73  8
7  19  8
7  39  8
70  74  8
71  73  8
72  74  8
8  20  8
8  40  8

$$$$
156425951
  -OEChem-11282412102D

 52 56  0     1  0  0  0  0  0999 V2000
    2.0418   -2.5612    0.0000 F   0  0  0  0  0  0  0  0  0  0  0  0
    3.7739   -2.5546    0.0000 F   0  0  0  0  0  0  0  0  0  0  0  0
    6.9901   -3.7111    0.0000 F   0  0  0  0  0  0  0  0  0  0  0  0
    2.0080    0.5045    0.0000 O   0  0  0  0  0  0  0  0  0  0  0  0
    5.6752    0.1399    0.0000 O   0  0  0  0  0  0  0  0  0  0  0  0
    6.6343    3.7111    0.0000 O   0  0  0  0  0  0  0  0  0  0  0  0
    3.8001   -0.5302    0.0000 N   0  0  3  0  0  0  0  0  0  0  0  0
    7.2620    2.3371    0.0000 N   0  0  0  0  0  0  0  0  0  0  0  0
    3.7841    2.5114    0.0000 N   0  0  0  0  0  0  0  0  0  0  0  0
    4.6501    1.0114    0.0000 N   0  0  0  0  0  0  0  0  0  0  0  0
    3.9933    3.4832    0.0000 N   0  0  0  0  0  0  0  0  0  0  0  0
    2.9021   -1.0579    0.0000 C   0  0  3  0  0  0  0  0  0  0  0  0
    4.3547   -1.3623    0.0000 C   0  0  0  0  0  0  0  0  0  0  0  0
    6.8187    1.4407    0.0000 C   0  0  0  0  0  0  0  0  0  0  0  0
    2.0000   -0.5371    0.0000 C   0  0  0  0  0  0  0  0  0  0  0  0
    3.7841    0.5113    0.0000 C   0  0  0  0  0  0  0  0  0  0  0  0
    2.9180    1.0114    0.0000 C   0  0  0  0  0  0  0  0  0  0  0  0
    2.9059   -2.0579    0.0000 C   0  0  0  0  0  0  0  0  0  0  0  0
    5.3353   -1.5585    0.0000 C   0  0  0  0  0  0  0  0  0  0  0  0
    5.8714    1.1204    0.0000 C   0  0  0  0  0  0  0  0  0  0  0  0
    4.6501    2.0114    0.0000 C   0  0  0  0  0  0  0  0  0  0  0  0
    2.9180    2.0114    0.0000 C   0  0  0  0  0  0  0  0  0  0  0  0
    5.9955   -0.8075    0.0000 C   0  0  0  0  0  0  0  0  0  0  0  0
    7.8165    1.3742    0.0000 C   0  0  0  0  0  0  0  0  0  0  0  0
    7.2600    0.5433    0.0000 C   0  0  0  0  0  0  0  0  0  0  0  0
    5.3871    2.6784    0.0000 C   0  0  0  0  0  0  0  0  0  0  0  0
    6.3850    2.7427    0.0000 C   0  0  0  0  0  0  0  0  0  0  0  0
    5.6537   -2.5503    0.0000 C   0  0  0  0  0  0  0  0  0  0  0  0
    4.9820    3.5862    0.0000 C   0  0  0  0  0  0  0  0  0  0  0  0
    7.0199   -0.9961    0.0000 C   0  0  0  0  0  0  0  0  0  0  0  0
    6.6734   -2.7626    0.0000 C   0  0  0  0  0  0  0  0  0  0  0  0
    7.3612   -1.9802    0.0000 C   0  0  0  0  0  0  0  0  0  0  0  0
    3.4408   -1.3648    0.0000 H   0  0  0  0  0  0  0  0  0  0  0  0
    3.7674   -1.5609    0.0000 H   0  0  0  0  0  0  0  0  0  0  0  0
    4.3945   -1.9810    0.0000 H   0  0  0  0  0  0  0  0  0  0  0  0
    1.3900   -0.4263    0.0000 H   0  0  0  0  0  0  0  0  0  0  0  0
    1.7864   -1.1192    0.0000 H   0  0  0  0  0  0  0  0  0  0  0  0
    2.9083   -2.6779    0.0000 H   0  0  0  0  0  0  0  0  0  0  0  0
    5.7778    1.7333    0.0000 H   0  0  0  0  0  0  0  0  0  0  0  0
    5.2516    1.1347    0.0000 H   0  0  0  0  0  0  0  0  0  0  0  0
    7.8432    2.5531    0.0000 H   0  0  0  0  0  0  0  0  0  0  0  0
    2.3811    2.3213    0.0000 H   0  0  0  0  0  0  0  0  0  0  0  0
    7.7752    0.7555    0.0000 H   0  0  0  0  0  0  0  0  0  0  0  0
    8.4351    1.3329    0.0000 H   0  0  0  0  0  0  0  0  0  0  0  0
    7.8578    1.9928    0.0000 H   0  0  0  0  0  0  0  0  0  0  0  0
    6.7036    0.2698    0.0000 H   0  0  0  0  0  0  0  0  0  0  0  0
    7.5335   -0.0130    0.0000 H   0  0  0  0  0  0  0  0  0  0  0  0
    7.8163    0.8169    0.0000 H   0  0  0  0  0  0  0  0  0  0  0  0
    5.2390   -3.0112    0.0000 H   0  0  0  0  0  0  0  0  0  0  0  0
    5.2920    4.1232    0.0000 H   0  0  0  0  0  0  0  0  0  0  0  0
    7.4238   -0.5257    0.0000 H   0  0  0  0  0  0  0  0  0  0  0  0
    7.9696   -2.0996    0.0000 H   0  0  0  0  0  0  0  0  0  0  0  0
  1 18  1  0  0  0  0
  2 18  1  0  0  0  0
  3 31  1  0  0  0  0
  4 15  1  0  0  0  0
  4 17  1  0  0  0  0
  5 20  1  0  0  0  0
  5 23  1  0  0  0  0
  6 27  2  0  0  0  0
  7 12  1  0  0  0  0
  7 13  1  0  0  0  0
  7 16  1  0  0  0  0
  8 14  1  0  0  0  0
  8 27  1  0  0  0  0
  8 41  1  0  0  0  0
  9 11  1  0  0  0  0
  9 21  1  0  0  0  0
  9 22  1  0  0  0  0
 10 16  2  0  0  0  0
 10 21  1  0  0  0  0
 11 29  2  0  0  0  0
 12 15  1  0  0  0  0
 12 18  1  0  0  0  0
 12 33  1  0  0  0  0
 13 19  1  0  0  0  0
 13 34  1  0  0  0  0
 13 35  1  0  0  0  0
 14 20  1  0  0  0  0
 14 24  1  0  0  0  0
 14 25  1  0  0  0  0
 15 36  1  0  0  0  0
 15 37  1  0  0  0  0
 16 17  1  0  0  0  0
 17 22  2  0  0  0  0
 18 38  1  0  0  0  0
 19 23  2  0  0  0  0
 19 28  1  0  0  0  0
 20 39  1  0  0  0  0
 20 40  1  0  0  0  0
 21 26  2  0  0  0  0
 22 42  1  0  0  0  0
 23 30  1  0  0  0  0
 24 43  1  0  0  0  0
 24 44  1  0  0  0  0
 24 45  1  0  0  0  0
 25 46  1  0  0  0  0
 25 47  1  0  0  0  0
 25 48  1  0  0  0  0
 26 27  1  0  0  0  0
 26 29  1  0  0  0  0
 28 31  2  0  0  0  0
 28 49  1  0  0  0  0
 29 50  1  0  0  0  0
 30 32  2  0  0  0  0
 30 51  1  0  0  0  0
 31 32  1  0  0  0  0
 32 52  1  0  0  0  0
M  END
> <PUBCHEM_COMPOUND_CID>
156425951

> <PUBCHEM_COMPOUND_CANONICALIZED>
1

> <PUBCHEM_CACTVS_COMPLEXITY>
716

> <PUBCHEM_CACTVS_HBOND_ACCEPTOR>
9

> <PUBCHEM_CACTVS_HBOND_DONOR>
1

> <PUBCHEM_CACTVS_ROTATABLE_BOND>
1

> <PUBCHEM_CACTVS_SUBSKEYS>
AAADceB7sYAAAAAAAAAAAAAAAAAAAWAAAAA8WIAAAAAAAFgB8AAAHwAYAAAADKzhmx4/tp/IFACqAjN3dASSjCs14KAd2CEvTNiOLurE+VuHvKju3BPYqOeQwCAOAAAAAAAIAAAAAAAAABAAAAAAAAAAAA==

> <PUBCHEM_IUPAC_OPENEYE_NAME>
18-(difluoromethyl)-13-fluoro-7,7-dimethyl-9,20-dioxa-1,2,6,17,23-pentazapentacyclo[19.3.1.04,24.010,15.017,22]pentacosa-2,4(24),10(15),11,13,21(25),22-heptaen-5-one

> <PUBCHEM_IUPAC_CAS_NAME>
18-(difluoromethyl)-13-fluoro-7,7-dimethyl-9,20-dioxa-1,2,6,17,23-pentazapentacyclo[19.3.1.04,24.010,15.017,22]pentacosa-2,4(24),10(15),11,13,21(25),22-heptaen-5-one

> <PUBCHEM_IUPAC_NAME_MARKUP>
18-(difluoromethyl)-13-fluoro-7,7-dimethyl-9,20-dioxa-1,2,6,17,23-pentazapentacyclo[19.3.1.0<SUP>4,24</SUP>.0<SUP>10,15</SUP>.0<SUP>17,22</SUP>]pentacosa-2,4(24),10(15),11,13,21(25),22-heptaen-5-one

> <PUBCHEM_IUPAC_NAME>
18-(difluoromethyl)-13-fluoro-7,7-dimethyl-9,20-dioxa-1,2,6,17,23-pentazapentacyclo[19.3.1.04,24.010,15.017,22]pentacosa-2,4(24),10(15),11,13,21(25),22-heptaen-5-one

> <PUBCHEM_IUPAC_SYSTEMATIC_NAME>
18-[bis(fluoranyl)methyl]-13-fluoranyl-7,7-dimethyl-9,20-dioxa-1,2,6,17,23-pentazapentacyclo[19.3.1.04,24.010,15.017,22]pentacosa-2,4(24),10(15),11,13,21(25),22-heptaen-5-one

> <PUBCHEM_IUPAC_TRADITIONAL_NAME>
18-(difluoromethyl)-13-fluoro-7,7-dimethyl-9,20-dioxa-1,2,6,17,23-pentazapentacyclo[19.3.1.04,24.010,15.017,22]pentacosa-2,4(24),10(15),11,13,21(25),22-heptaen-5-one

> <PUBCHEM_IUPAC_INCHI>
InChI=1S/C21H20F3N5O3/c1-21(2)10-32-15-4-3-12(22)5-11(15)7-28-14(17(23)24)9-31-16-8-29-18(26-19(16)28)13(6-25-29)20(30)27-21/h3-6,8,14,17H,7,9-10H2,1-2H3,(H,27,30)

> <PUBCHEM_IUPAC_INCHIKEY>
ILAMRXVQSGVCJX-UHFFFAOYSA-N

> <PUBCHEM_XLOGP3_AA>
2.7

> <PUBCHEM_EXACT_MASS>
447.15182400

> <PUBCHEM_MOLECULAR_FORMULA>
C21H20F3N5O3

> <PUBCHEM_MOLECULAR_WEIGHT>
447.4

> <PUBCHEM_OPENEYE_CAN_SMILES>
CC1(COC2=C(CN3C(COC4=CN5C(=C(C=N5)C(=O)N1)N=C43)C(F)F)C=C(C=C2)F)C

> <PUBCHEM_OPENEYE_ISO_SMILES>
CC1(COC2=C(CN3C(COC4=CN5C(=C(C=N5)C(=O)N1)N=C43)C(F)F)C=C(C=C2)F)C

> <PUBCHEM_CACTVS_TPSA>
81

> <PUBCHEM_MONOISOTOPIC_WEIGHT>
447.15182400

> <PUBCHEM_TOTAL_CHARGE>
0

> <PUBCHEM_HEAVY_ATOM_COUNT>
32

> <PUBCHEM_ATOM_DEF_STEREO_COUNT>
0

> <PUBCHEM_ATOM_UDEF_STEREO_COUNT>
1

> <PUBCHEM_BOND_DEF_STEREO_COUNT>
0

> <PUBCHEM_BOND_UDEF_STEREO_COUNT>
0

> <PUBCHEM_ISOTOPIC_ATOM_COUNT>
0

> <PUBCHEM_COMPONENT_COUNT>
1

> <PUBCHEM_CACTVS_TAUTO_COUNT>
-1

> <PUBCHEM_COORDINATE_TYPE>
1
5
255

> <PUBCHEM_BONDANNOTATIONS>
10  16  8
10  21  8
11  29  8
12  18  3
16  17  8
17  22  8
19  23  8
19  28  8
21  26  8
23  30  8
26  29  8
28  31  8
30  32  8
31  32  8
9  11  8
9  21  8
9  22  8

$$$$
9870815
  -OEChem-11282412102D

 54 56  0     0  0  0  0  0  0999 V2000
    4.8046   11.5369    0.0000 Cl  0  0  0  0  0  0  0  0  0  0  0  0
    1.4030    6.1639    0.0000 S   0  0  0  0  0  0  0  0  0  0  0  0
   10.0810    6.7322    0.0000 O   0  0  0  0  0  0  0  0  0  0  0  0
    8.2687    5.5369    0.0000 O   0  0  0  0  0  0  0  0  0  0  0  0
   10.0008    2.5369    0.0000 O   0  0  0  0  0  0  0  0  0  0  0  0
    2.2690    6.6639    0.0000 O   0  0  0  0  0  0  0  0  0  0  0  0
    0.9030    7.0300    0.0000 O   0  0  0  0  0  0  0  0  0  0  0  0
    1.9030    5.2979    0.0000 O   0  0  0  0  0  0  0  0  0  0  0  0
    8.2687    9.5369    0.0000 N   0  0  0  0  0  0  0  0  0  0  0  0
    7.4027    8.0369    0.0000 N   0  0  0  0  0  0  0  0  0  0  0  0
    7.4027    7.0369    0.0000 N   0  0  0  0  0  0  0  0  0  0  0  0
    7.4027    2.0369    0.0000 N   0  0  0  0  0  0  0  0  0  0  0  0
    9.1347    1.0369    0.0000 N   0  0  0  0  0  0  0  0  0  0  0  0
    9.1347    8.0369    0.0000 C   0  0  0  0  0  0  0  0  0  0  0  0
    9.1347    7.0369    0.0000 C   0  0  0  0  0  0  0  0  0  0  0  0
    8.2687    8.5369    0.0000 C   0  0  0  0  0  0  0  0  0  0  0  0
    8.2687    6.5369    0.0000 C   0  0  0  0  0  0  0  0  0  0  0  0
   10.0810    8.3417    0.0000 C   0  0  0  0  0  0  0  0  0  0  0  0
    7.4027    5.0369    0.0000 C   0  0  0  0  0  0  0  0  0  0  0  0
    7.4027    4.0369    0.0000 C   0  0  0  0  0  0  0  0  0  0  0  0
    7.4027   10.0369    0.0000 C   0  0  0  0  0  0  0  0  0  0  0  0
   10.6646    7.5369    0.0000 C   0  0  0  0  0  0  0  0  0  0  0  0
    8.2687    3.5369    0.0000 C   0  0  0  0  0  0  0  0  0  0  0  0
    6.5367    3.5369    0.0000 C   0  0  0  0  0  0  0  0  0  0  0  0
    8.2687    2.5369    0.0000 C   0  0  0  0  0  0  0  0  0  0  0  0
    7.4027   11.0369    0.0000 C   0  0  0  0  0  0  0  0  0  0  0  0
    6.5367    9.5369    0.0000 C   0  0  0  0  0  0  0  0  0  0  0  0
    6.5367    2.5369    0.0000 C   0  0  0  0  0  0  0  0  0  0  0  0
    6.5367   11.5369    0.0000 C   0  0  0  0  0  0  0  0  0  0  0  0
    5.6706   10.0369    0.0000 C   0  0  0  0  0  0  0  0  0  0  0  0
    5.6706   11.0369    0.0000 C   0  0  0  0  0  0  0  0  0  0  0  0
    9.1347    2.0369    0.0000 C   0  0  0  0  0  0  0  0  0  0  0  0
   10.0008    0.5369    0.0000 C   0  0  0  0  0  0  0  0  0  0  0  0
    0.5369    5.6639    0.0000 C   0  0  0  0  0  0  0  0  0  0  0  0
   10.2736    8.9310    0.0000 H   0  0  0  0  0  0  0  0  0  0  0  0
    7.1906    5.6195    0.0000 H   0  0  0  0  0  0  0  0  0  0  0  0
    6.7921    4.9293    0.0000 H   0  0  0  0  0  0  0  0  0  0  0  0
    8.8056    9.8469    0.0000 H   0  0  0  0  0  0  0  0  0  0  0  0
   11.2846    7.5369    0.0000 H   0  0  0  0  0  0  0  0  0  0  0  0
    8.8056    3.8469    0.0000 H   0  0  0  0  0  0  0  0  0  0  0  0
    5.9997    3.8469    0.0000 H   0  0  0  0  0  0  0  0  0  0  0  0
    7.9396   11.3469    0.0000 H   0  0  0  0  0  0  0  0  0  0  0  0
    6.5367    8.9169    0.0000 H   0  0  0  0  0  0  0  0  0  0  0  0
    5.9997    2.2269    0.0000 H   0  0  0  0  0  0  0  0  0  0  0  0
    6.5367   12.1569    0.0000 H   0  0  0  0  0  0  0  0  0  0  0  0
    5.1337    9.7269    0.0000 H   0  0  0  0  0  0  0  0  0  0  0  0
    8.5978    0.7269    0.0000 H   0  0  0  0  0  0  0  0  0  0  0  0
    9.6908    0.0000    0.0000 H   0  0  0  0  0  0  0  0  0  0  0  0
   10.5377    0.2269    0.0000 H   0  0  0  0  0  0  0  0  0  0  0  0
   10.3108    1.0739    0.0000 H   0  0  0  0  0  0  0  0  0  0  0  0
    0.2269    6.2009    0.0000 H   0  0  0  0  0  0  0  0  0  0  0  0
    0.0000    5.3539    0.0000 H   0  0  0  0  0  0  0  0  0  0  0  0
    0.8469    5.1270    0.0000 H   0  0  0  0  0  0  0  0  0  0  0  0
    2.8059    6.3539    0.0000 H   0  0  0  0  0  0  0  0  0  0  0  0
  1 31  1  0  0  0  0
  2  6  1  0  0  0  0
  2  7  2  0  0  0  0
  2  8  2  0  0  0  0
  2 34  1  0  0  0  0
  3 15  1  0  0  0  0
  3 22  1  0  0  0  0
  4 17  1  0  0  0  0
  4 19  1  0  0  0  0
  5 32  2  0  0  0  0
  6 54  1  0  0  0  0
  9 16  1  0  0  0  0
  9 21  1  0  0  0  0
  9 38  1  0  0  0  0
 10 11  1  0  0  0  0
 10 16  2  0  0  0  0
 11 17  2  0  0  0  0
 12 25  2  0  0  0  0
 12 28  1  0  0  0  0
 13 32  1  0  0  0  0
 13 33  1  0  0  0  0
 13 47  1  0  0  0  0
 14 15  2  0  0  0  0
 14 16  1  0  0  0  0
 14 18  1  0  0  0  0
 15 17  1  0  0  0  0
 18 22  2  0  0  0  0
 18 35  1  0  0  0  0
 19 20  1  0  0  0  0
 19 36  1  0  0  0  0
 19 37  1  0  0  0  0
 20 23  2  0  0  0  0
 20 24  1  0  0  0  0
 21 26  2  0  0  0  0
 21 27  1  0  0  0  0
 22 39  1  0  0  0  0
 23 25  1  0  0  0  0
 23 40  1  0  0  0  0
 24 28  2  0  0  0  0
 24 41  1  0  0  0  0
 25 32  1  0  0  0  0
 26 29  1  0  0  0  0
 26 42  1  0  0  0  0
 27 30  2  0  0  0  0
 27 43  1  0  0  0  0
 28 44  1  0  0  0  0
 29 31  2  0  0  0  0
 29 45  1  0  0  0  0
 30 31  1  0  0  0  0
 30 46  1  0  0  0  0
 33 48  1  0  0  0  0
 33 49  1  0  0  0  0
 33 50  1  0  0  0  0
 34 51  1  0  0  0  0
 34 52  1  0  0  0  0
 34 53  1  0  0  0  0
M  END
> <PUBCHEM_COMPOUND_CID>
9870815

> <PUBCHEM_COMPOUND_CANONICALIZED>
1

> <PUBCHEM_CACTVS_COMPLEXITY>
641

> <PUBCHEM_CACTVS_HBOND_ACCEPTOR>
10

> <PUBCHEM_CACTVS_HBOND_DONOR>
3

> <PUBCHEM_CACTVS_ROTATABLE_BOND>
6

> <PUBCHEM_CACTVS_SUBSKEYS>
AAADceB7uABEAAAAAAAAAAAAAAAAASAAAAA8WIAAAAAAAFgB/gAAHgYYCAAADA7hnia/9tLIFMKqA7939HaSjCI3ZyAd2KH/7tiPZvrFv7+fuar22hvK6ee8PQoOAABAAAAAAAAAAIAAAAAAAAAAAAAAAA==

> <PUBCHEM_IUPAC_OPENEYE_NAME>
4-[[4-(4-chloroanilino)furo[2,3-d]pyridazin-7-yl]oxymethyl]-N-methyl-pyridine-2-carboxamide;methanesulfonic acid

> <PUBCHEM_IUPAC_CAS_NAME>
4-[[4-(4-chloroanilino)-7-furo[2,3-d]pyridazinyl]oxymethyl]-N-methyl-2-pyridinecarboxamide;methanesulfonic acid

> <PUBCHEM_IUPAC_NAME_MARKUP>
4-[[4-(4-chloroanilino)furo[2,3-d]pyridazin-7-yl]oxymethyl]-<I>N</I>-methylpyridine-2-carboxamide;methanesulfonic acid

> <PUBCHEM_IUPAC_NAME>
4-[[4-(4-chloroanilino)furo[2,3-d]pyridazin-7-yl]oxymethyl]-N-methylpyridine-2-carboxamide;methanesulfonic acid

> <PUBCHEM_IUPAC_SYSTEMATIC_NAME>
4-[[4-[(4-chlorophenyl)amino]furo[2,3-d]pyridazin-7-yl]oxymethyl]-N-methyl-pyridine-2-carboxamide;methanesulfonic acid

> <PUBCHEM_IUPAC_TRADITIONAL_NAME>
4-[[4-(4-chloroanilino)furo[2,3-d]pyridazin-7-yl]oxymethyl]-N-methyl-picolinamide;mesylic acid

> <PUBCHEM_IUPAC_INCHI>
InChI=1S/C20H16ClN5O3.CH4O3S/c1-22-19(27)16-10-12(6-8-23-16)11-29-20-17-15(7-9-28-17)18(25-26-20)24-14-4-2-13(21)3-5-14;1-5(2,3)4/h2-10H,11H2,1H3,(H,22,27)(H,24,25);1H3,(H,2,3,4)

> <PUBCHEM_IUPAC_INCHIKEY>
LCMLACPWPXITHP-UHFFFAOYSA-N

> <PUBCHEM_EXACT_MASS>
505.0822822

> <PUBCHEM_MOLECULAR_FORMULA>
C21H20ClN5O6S

> <PUBCHEM_MOLECULAR_WEIGHT>
505.9

> <PUBCHEM_OPENEYE_CAN_SMILES>
CNC(=O)C1=NC=CC(=C1)COC2=NN=C(C3=C2OC=C3)NC4=CC=C(C=C4)Cl.CS(=O)(=O)O

> <PUBCHEM_OPENEYE_ISO_SMILES>
CNC(=O)C1=NC=CC(=C1)COC2=NN=C(C3=C2OC=C3)NC4=CC=C(C=C4)Cl.CS(=O)(=O)O

> <PUBCHEM_CACTVS_TPSA>
165

> <PUBCHEM_MONOISOTOPIC_WEIGHT>
505.0822822

> <PUBCHEM_TOTAL_CHARGE>
0

> <PUBCHEM_HEAVY_ATOM_COUNT>
34

> <PUBCHEM_ATOM_DEF_STEREO_COUNT>
0

> <PUBCHEM_ATOM_UDEF_STEREO_COUNT>
0

> <PUBCHEM_BOND_DEF_STEREO_COUNT>
0

> <PUBCHEM_BOND_UDEF_STEREO_COUNT>
0

> <PUBCHEM_ISOTOPIC_ATOM_COUNT>
0

> <PUBCHEM_COMPONENT_COUNT>
2

> <PUBCHEM_CACTVS_TAUTO_COUNT>
-1

> <PUBCHEM_COORDINATE_TYPE>
1
5
255

> <PUBCHEM_BONDANNOTATIONS>
10  11  8
10  16  8
11  17  8
12  25  8
12  28  8
14  15  8
14  16  8
14  18  8
15  17  8
18  22  8
20  23  8
20  24  8
21  26  8
21  27  8
23  25  8
24  28  8
26  29  8
27  30  8
29  31  8
3  15  8
3  22  8
30  31  8

$$$$
46866319
  -OEChem-11282412102D

 49 52  0     1  0  0  0  0  0999 V2000
    2.0000   -2.6739    0.0000 F   0  0  0  0  0  0  0  0  0  0  0  0
    6.3301   -1.1739    0.0000 N   0  0  0  0  0  0  0  0  0  0  0  0
    8.0622   -1.1739    0.0000 N   0  0  0  0  0  0  0  0  0  0  0  0
    8.5622    3.3649    0.0000 N   0  0  0  0  0  0  0  0  0  0  0  0
    9.7942   -1.1739    0.0000 N   0  0  0  0  0  0  0  0  0  0  0  0
    7.5622    3.3649    0.0000 N   0  0  0  0  0  0  0  0  0  0  0  0
   10.6603   -2.6739    0.0000 N   0  0  0  0  0  0  0  0  0  0  0  0
    8.9282   -3.6739    0.0000 N   0  0  0  0  0  0  0  0  0  0  0  0
    5.4641   -0.6739    0.0000 C   0  0  2  0  0  0  0  0  0  0  0  0
    4.5981   -1.1739    0.0000 C   0  0  0  0  0  0  0  0  0  0  0  0
    7.1962   -0.6739    0.0000 C   0  0  0  0  0  0  0  0  0  0  0  0
    5.4641    0.3261    0.0000 C   0  0  0  0  0  0  0  0  0  0  0  0
    8.0622    0.8261    0.0000 C   0  0  0  0  0  0  0  0  0  0  0  0
    7.1962    0.3261    0.0000 C   0  0  0  0  0  0  0  0  0  0  0  0
    8.0622    1.8261    0.0000 C   0  0  0  0  0  0  0  0  0  0  0  0
    8.9282    0.3261    0.0000 C   0  0  0  0  0  0  0  0  0  0  0  0
    8.9282   -0.6739    0.0000 C   0  0  0  0  0  0  0  0  0  0  0  0
    4.5981   -2.1739    0.0000 C   0  0  0  0  0  0  0  0  0  0  0  0
    3.7320   -0.6739    0.0000 C   0  0  0  0  0  0  0  0  0  0  0  0
    8.8712    2.4139    0.0000 C   0  0  0  0  0  0  0  0  0  0  0  0
    7.2532    2.4139    0.0000 C   0  0  0  0  0  0  0  0  0  0  0  0
    3.7320   -2.6739    0.0000 C   0  0  0  0  0  0  0  0  0  0  0  0
    2.8660   -1.1739    0.0000 C   0  0  0  0  0  0  0  0  0  0  0  0
    2.8660   -2.1739    0.0000 C   0  0  0  0  0  0  0  0  0  0  0  0
    9.1500    4.1739    0.0000 C   0  0  0  0  0  0  0  0  0  0  0  0
    9.7942   -2.1739    0.0000 C   0  0  0  0  0  0  0  0  0  0  0  0
    8.9282   -2.6739    0.0000 C   0  0  0  0  0  0  0  0  0  0  0  0
   10.6603   -3.6739    0.0000 C   0  0  0  0  0  0  0  0  0  0  0  0
    9.7942   -4.1739    0.0000 C   0  0  0  0  0  0  0  0  0  0  0  0
    5.4641   -1.2939    0.0000 H   0  0  0  0  0  0  0  0  0  0  0  0
    6.3301   -1.7939    0.0000 H   0  0  0  0  0  0  0  0  0  0  0  0
    6.0841    0.3261    0.0000 H   0  0  0  0  0  0  0  0  0  0  0  0
    5.4641    0.9461    0.0000 H   0  0  0  0  0  0  0  0  0  0  0  0
    4.8441    0.3261    0.0000 H   0  0  0  0  0  0  0  0  0  0  0  0
    6.6592    0.6361    0.0000 H   0  0  0  0  0  0  0  0  0  0  0  0
    9.4651    0.6361    0.0000 H   0  0  0  0  0  0  0  0  0  0  0  0
    5.1350   -2.4839    0.0000 H   0  0  0  0  0  0  0  0  0  0  0  0
    3.7320   -0.0539    0.0000 H   0  0  0  0  0  0  0  0  0  0  0  0
    9.4608    2.2223    0.0000 H   0  0  0  0  0  0  0  0  0  0  0  0
    6.6635    2.2223    0.0000 H   0  0  0  0  0  0  0  0  0  0  0  0
    3.7320   -3.2939    0.0000 H   0  0  0  0  0  0  0  0  0  0  0  0
    2.3291   -0.8639    0.0000 H   0  0  0  0  0  0  0  0  0  0  0  0
   10.3312   -0.8639    0.0000 H   0  0  0  0  0  0  0  0  0  0  0  0
    9.6516    3.8095    0.0000 H   0  0  0  0  0  0  0  0  0  0  0  0
    9.5144    4.6755    0.0000 H   0  0  0  0  0  0  0  0  0  0  0  0
    8.6484    4.5384    0.0000 H   0  0  0  0  0  0  0  0  0  0  0  0
    8.3913   -2.3639    0.0000 H   0  0  0  0  0  0  0  0  0  0  0  0
   11.1972   -3.9839    0.0000 H   0  0  0  0  0  0  0  0  0  0  0  0
    9.7942   -4.7939    0.0000 H   0  0  0  0  0  0  0  0  0  0  0  0
  1 24  1  0  0  0  0
  9  2  1  6  0  0  0
  2 11  1  0  0  0  0
  2 31  1  0  0  0  0
  3 11  1  0  0  0  0
  3 17  2  0  0  0  0
  4  6  1  0  0  0  0
  4 20  1  0  0  0  0
  4 25  1  0  0  0  0
  5 17  1  0  0  0  0
  5 26  1  0  0  0  0
  5 43  1  0  0  0  0
  6 21  2  0  0  0  0
  7 26  2  0  0  0  0
  7 28  1  0  0  0  0
  8 27  2  0  0  0  0
  8 29  1  0  0  0  0
  9 10  1  0  0  0  0
  9 12  1  0  0  0  0
  9 30  1  0  0  0  0
 10 18  2  0  0  0  0
 10 19  1  0  0  0  0
 11 14  2  0  0  0  0
 12 32  1  0  0  0  0
 12 33  1  0  0  0  0
 12 34  1  0  0  0  0
 13 14  1  0  0  0  0
 13 15  1  0  0  0  0
 13 16  2  0  0  0  0
 14 35  1  0  0  0  0
 15 20  2  0  0  0  0
 15 21  1  0  0  0  0
 16 17  1  0  0  0  0
 16 36  1  0  0  0  0
 18 22  1  0  0  0  0
 18 37  1  0  0  0  0
 19 23  2  0  0  0  0
 19 38  1  0  0  0  0
 20 39  1  0  0  0  0
 21 40  1  0  0  0  0
 22 24  2  0  0  0  0
 22 41  1  0  0  0  0
 23 24  1  0  0  0  0
 23 42  1  0  0  0  0
 25 44  1  0  0  0  0
 25 45  1  0  0  0  0
 25 46  1  0  0  0  0
 26 27  1  0  0  0  0
 27 47  1  0  0  0  0
 28 29  2  0  0  0  0
 28 48  1  0  0  0  0
 29 49  1  0  0  0  0
M  END
> <PUBCHEM_COMPOUND_CID>
46866319

> <PUBCHEM_COMPOUND_CANONICALIZED>
1

> <PUBCHEM_CACTVS_COMPLEXITY>
501

> <PUBCHEM_CACTVS_HBOND_ACCEPTOR>
7

> <PUBCHEM_CACTVS_HBOND_DONOR>
2

> <PUBCHEM_CACTVS_ROTATABLE_BOND>
6

> <PUBCHEM_CACTVS_SUBSKEYS>
AAADceB7gQAAAAAAAAAAAAAAAAAAAWAAAAA8WIAAAAAAAAAB/AAAHQAYAAAADCjBGgw/sJLIEACiAjJnZACShC0xkiAZ2KA4dJiIYOLA2dGUpAhomALIyCcQgIAOgAAAAAAAAAAAAAAAAAAAAAAAAAAAAA==

> <PUBCHEM_IUPAC_OPENEYE_NAME>
N6-[(1S)-1-(4-fluorophenyl)ethyl]-4-(1-methylpyrazol-4-yl)-N2-pyrazin-2-yl-pyridine-2,6-diamine

> <PUBCHEM_IUPAC_CAS_NAME>
N6-[(1S)-1-(4-fluorophenyl)ethyl]-4-(1-methyl-4-pyrazolyl)-N2-(2-pyrazinyl)pyridine-2,6-diamine

> <PUBCHEM_IUPAC_NAME_MARKUP>
6-<I>N</I>-[(1<I>S</I>)-1-(4-fluorophenyl)ethyl]-4-(1-methylpyrazol-4-yl)-2-<I>N</I>-pyrazin-2-ylpyridine-2,6-diamine

> <PUBCHEM_IUPAC_NAME>
6-N-[(1S)-1-(4-fluorophenyl)ethyl]-4-(1-methylpyrazol-4-yl)-2-N-pyrazin-2-ylpyridine-2,6-diamine

> <PUBCHEM_IUPAC_SYSTEMATIC_NAME>
N6-[(1S)-1-(4-fluorophenyl)ethyl]-4-(1-methylpyrazol-4-yl)-N2-pyrazin-2-yl-pyridine-2,6-diamine

> <PUBCHEM_IUPAC_TRADITIONAL_NAME>
[(1S)-1-(4-fluorophenyl)ethyl]-[4-(1-methylpyrazol-4-yl)-6-(pyrazin-2-ylamino)-2-pyridyl]amine

> <PUBCHEM_IUPAC_INCHI>
InChI=1S/C21H20FN7/c1-14(15-3-5-18(22)6-4-15)26-19-9-16(17-11-25-29(2)13-17)10-20(27-19)28-21-12-23-7-8-24-21/h3-14H,1-2H3,(H2,24,26,27,28)/t14-/m0/s1

> <PUBCHEM_IUPAC_INCHIKEY>
UQTPDWDAYHAZNT-AWEZNQCLSA-N

> <PUBCHEM_XLOGP3_AA>
3.2

> <PUBCHEM_EXACT_MASS>
389.17642183

> <PUBCHEM_MOLECULAR_FORMULA>
C21H20FN7

> <PUBCHEM_MOLECULAR_WEIGHT>
389.4

> <PUBCHEM_OPENEYE_CAN_SMILES>
CC(C1=CC=C(C=C1)F)NC2=CC(=CC(=N2)NC3=NC=CN=C3)C4=CN(N=C4)C

> <PUBCHEM_OPENEYE_ISO_SMILES>
C[C@@H](C1=CC=C(C=C1)F)NC2=CC(=CC(=N2)NC3=NC=CN=C3)C4=CN(N=C4)C

> <PUBCHEM_CACTVS_TPSA>
80.6

> <PUBCHEM_MONOISOTOPIC_WEIGHT>
389.17642183

> <PUBCHEM_TOTAL_CHARGE>
0

> <PUBCHEM_HEAVY_ATOM_COUNT>
29

> <PUBCHEM_ATOM_DEF_STEREO_COUNT>
1

> <PUBCHEM_ATOM_UDEF_STEREO_COUNT>
0

> <PUBCHEM_BOND_DEF_STEREO_COUNT>
0

> <PUBCHEM_BOND_UDEF_STEREO_COUNT>
0

> <PUBCHEM_ISOTOPIC_ATOM_COUNT>
0

> <PUBCHEM_COMPONENT_COUNT>
1

> <PUBCHEM_CACTVS_TAUTO_COUNT>
13

> <PUBCHEM_COORDINATE_TYPE>
1
5
255

> <PUBCHEM_BONDANNOTATIONS>
10  18  8
10  19  8
11  14  8
13  14  8
13  16  8
15  20  8
15  21  8
16  17  8
18  22  8
19  23  8
9  2  6
22  24  8
23  24  8
26  27  8
28  29  8
3  11  8
3  17  8
4  20  8
4  6  8
6  21  8
7  26  8
7  28  8
8  27  8
8  29  8

$$$$
67443473
  -OEChem-11282412102D

 69 72  0     0  0  0  0  0  0999 V2000
    4.9665    0.0000    0.0000 Cl  0  0  0  0  0  0  0  0  0  0  0  0
    4.2047    6.3207    0.0000 O   0  0  0  0  0  0  0  0  0  0  0  0
    3.4678    7.1552    0.0000 O   0  0  0  0  0  0  0  0  0  0  0  0
    6.0659    4.6552    0.0000 O   0  0  0  0  0  0  0  0  0  0  0  0
    1.9239    4.9797    0.0000 N   0  0  0  0  0  0  0  0  0  0  0  0
    7.7979    7.6552    0.0000 N   0  0  0  0  0  0  0  0  0  0  0  0
    8.6640    6.1552    0.0000 N   0  0  0  0  0  0  0  0  0  0  0  0
    9.5300    7.6552    0.0000 N   0  0  0  0  0  0  0  0  0  0  0  0
    0.9269    5.0572    0.0000 C   0  0  0  0  0  0  0  0  0  0  0  0
    2.1584    4.0076    0.0000 C   0  0  0  0  0  0  0  0  0  0  0  0
    0.5452    4.1329    0.0000 C   0  0  0  0  0  0  0  0  0  0  0  0
    1.3063    3.4842    0.0000 C   0  0  0  0  0  0  0  0  0  0  0  0
    2.5726    5.7408    0.0000 C   0  0  0  0  0  0  0  0  0  0  0  0
    3.5560    5.5596    0.0000 C   0  0  0  0  0  0  0  0  0  0  0  0
    5.1881    6.1394    0.0000 C   0  0  0  0  0  0  0  0  0  0  0  0
    5.1999    7.1552    0.0000 C   0  0  0  0  0  0  0  0  0  0  0  0
    6.0659    5.6281    0.0000 C   0  0  0  0  0  0  0  0  0  0  0  0
    6.0659    7.6552    0.0000 C   0  0  0  0  0  0  0  0  0  0  0  0
    4.3338    7.6552    0.0000 C   0  0  0  0  0  0  0  0  0  0  0  0
    6.9319    7.1552    0.0000 C   0  0  0  0  0  0  0  0  0  0  0  0
    6.9437    6.1394    0.0000 C   0  0  0  0  0  0  0  0  0  0  0  0
    3.4678    6.1552    0.0000 C   0  0  0  0  0  0  0  0  0  0  0  0
    8.6640    7.1552    0.0000 C   0  0  0  0  0  0  0  0  0  0  0  0
    9.5300    4.6552    0.0000 C   0  0  0  0  0  0  0  0  0  0  0  0
    7.7979    4.6552    0.0000 C   0  0  0  0  0  0  0  0  0  0  0  0
    9.5300    5.6552    0.0000 C   0  0  0  0  0  0  0  0  0  0  0  0
    8.6640    4.1552    0.0000 C   0  0  0  0  0  0  0  0  0  0  0  0
    6.9319    4.1552    0.0000 C   0  0  0  0  0  0  0  0  0  0  0  0
    4.3338    5.6552    0.0000 C   0  0  0  0  0  0  0  0  0  0  0  0
    9.5417    3.6394    0.0000 C   0  0  0  0  0  0  0  0  0  0  0  0
    7.7862    3.6394    0.0000 C   0  0  0  0  0  0  0  0  0  0  0  0
   10.3960    6.1552    0.0000 C   0  0  0  0  0  0  0  0  0  0  0  0
    8.6640    3.1281    0.0000 C   0  0  0  0  0  0  0  0  0  0  0  0
    5.1999    4.1552    0.0000 C   0  0  0  0  0  0  0  0  0  0  0  0
    4.3338    4.6552    0.0000 C   0  0  0  0  0  0  0  0  0  0  0  0
   10.3960    7.1552    0.0000 C   0  0  0  0  0  0  0  0  0  0  0  0
    1.0393    5.6669    0.0000 H   0  0  0  0  0  0  0  0  0  0  0  0
    0.3323    5.2327    0.0000 H   0  0  0  0  0  0  0  0  0  0  0  0
    2.4259    3.4482    0.0000 H   0  0  0  0  0  0  0  0  0  0  0  0
    2.7426    4.2151    0.0000 H   0  0  0  0  0  0  0  0  0  0  0  0
    0.0000    4.4282    0.0000 H   0  0  0  0  0  0  0  0  0  0  0  0
    0.1945    3.6216    0.0000 H   0  0  0  0  0  0  0  0  0  0  0  0
    0.8570    3.0570    0.0000 H   0  0  0  0  0  0  0  0  0  0  0  0
    1.6842    2.9927    0.0000 H   0  0  0  0  0  0  0  0  0  0  0  0
    2.7891    6.3218    0.0000 H   0  0  0  0  0  0  0  0  0  0  0  0
    2.0380    6.0550    0.0000 H   0  0  0  0  0  0  0  0  0  0  0  0
    3.3395    4.9786    0.0000 H   0  0  0  0  0  0  0  0  0  0  0  0
    4.0906    5.2454    0.0000 H   0  0  0  0  0  0  0  0  0  0  0  0
    6.0659    5.0081    0.0000 H   0  0  0  0  0  0  0  0  0  0  0  0
    6.0659    8.2752    0.0000 H   0  0  0  0  0  0  0  0  0  0  0  0
    4.7324    8.1301    0.0000 H   0  0  0  0  0  0  0  0  0  0  0  0
    3.9353    8.1301    0.0000 H   0  0  0  0  0  0  0  0  0  0  0  0
    7.4830    5.8336    0.0000 H   0  0  0  0  0  0  0  0  0  0  0  0
    7.7979    8.2752    0.0000 H   0  0  0  0  0  0  0  0  0  0  0  0
    2.8572    6.2629    0.0000 H   0  0  0  0  0  0  0  0  0  0  0  0
    3.2558    5.5726    0.0000 H   0  0  0  0  0  0  0  0  0  0  0  0
    8.6640    3.5352    0.0000 H   0  0  0  0  0  0  0  0  0  0  0  0
    6.5334    3.6802    0.0000 H   0  0  0  0  0  0  0  0  0  0  0  0
    7.3304    3.6802    0.0000 H   0  0  0  0  0  0  0  0  0  0  0  0
   10.0811    3.3336    0.0000 H   0  0  0  0  0  0  0  0  0  0  0  0
    4.9444    5.5475    0.0000 H   0  0  0  0  0  0  0  0  0  0  0  0
    7.2469    3.3336    0.0000 H   0  0  0  0  0  0  0  0  0  0  0  0
   10.9330    5.8452    0.0000 H   0  0  0  0  0  0  0  0  0  0  0  0
    8.6640    2.5081    0.0000 H   0  0  0  0  0  0  0  0  0  0  0  0
    4.8013    3.6802    0.0000 H   0  0  0  0  0  0  0  0  0  0  0  0
    5.5984    3.6802    0.0000 H   0  0  0  0  0  0  0  0  0  0  0  0
    3.7969    4.3452    0.0000 H   0  0  0  0  0  0  0  0  0  0  0  0
   10.9330    7.4652    0.0000 H   0  0  0  0  0  0  0  0  0  0  0  0
    5.9665    0.0000    0.0000 H   0  0  0  0  0  0  0  0  0  0  0  0
  1 69  1  0  0  0  0
  2 14  1  0  0  0  0
  2 15  1  0  0  0  0
  3 19  1  0  0  0  0
  3 22  1  0  0  0  0
  4 28  1  0  0  0  0
  4 34  1  0  0  0  0
  5  9  1  0  0  0  0
  5 10  1  0  0  0  0
  5 13  1  0  0  0  0
  6 20  1  0  0  0  0
  6 23  1  0  0  0  0
  6 54  1  0  0  0  0
  7 23  1  0  0  0  0
  7 26  2  0  0  0  0
  8 23  2  0  0  0  0
  8 36  1  0  0  0  0
  9 11  1  0  0  0  0
  9 37  1  0  0  0  0
  9 38  1  0  0  0  0
 10 12  1  0  0  0  0
 10 39  1  0  0  0  0
 10 40  1  0  0  0  0
 11 12  1  0  0  0  0
 11 41  1  0  0  0  0
 11 42  1  0  0  0  0
 12 43  1  0  0  0  0
 12 44  1  0  0  0  0
 13 14  1  0  0  0  0
 13 45  1  0  0  0  0
 13 46  1  0  0  0  0
 14 47  1  0  0  0  0
 14 48  1  0  0  0  0
 15 16  2  0  0  0  0
 15 17  1  0  0  0  0
 16 18  1  0  0  0  0
 16 19  1  0  0  0  0
 17 21  2  0  0  0  0
 17 49  1  0  0  0  0
 18 20  2  0  0  0  0
 18 50  1  0  0  0  0
 19 51  1  0  0  0  0
 19 52  1  0  0  0  0
 20 21  1  0  0  0  0
 21 53  1  0  0  0  0
 22 29  1  0  0  0  0
 22 55  1  0  0  0  0
 22 56  1  0  0  0  0
 24 26  1  0  0  0  0
 24 27  1  0  0  0  0
 24 30  2  0  0  0  0
 25 27  2  0  0  0  0
 25 28  1  0  0  0  0
 25 31  1  0  0  0  0
 26 32  1  0  0  0  0
 27 57  1  0  0  0  0
 28 58  1  0  0  0  0
 28 59  1  0  0  0  0
 29 35  2  0  0  0  0
 29 61  1  0  0  0  0
 30 33  1  0  0  0  0
 30 60  1  0  0  0  0
 31 33  2  0  0  0  0
 31 62  1  0  0  0  0
 32 36  2  0  0  0  0
 32 63  1  0  0  0  0
 33 64  1  0  0  0  0
 34 35  1  0  0  0  0
 34 65  1  0  0  0  0
 34 66  1  0  0  0  0
 35 67  1  0  0  0  0
 36 68  1  0  0  0  0
M  END
> <PUBCHEM_COMPOUND_CID>
67443473

> <PUBCHEM_COMPOUND_CANONICALIZED>
1

> <PUBCHEM_CACTVS_COMPLEXITY>
644

> <PUBCHEM_CACTVS_HBOND_ACCEPTOR>
7

> <PUBCHEM_CACTVS_HBOND_DONOR>
2

> <PUBCHEM_CACTVS_ROTATABLE_BOND>
4

> <PUBCHEM_CACTVS_SUBSKEYS>
AAADcfB7sAAEAAAAAAAAAAAAAAAAAWAAAAA8YIAAAAAAAAAB0AAAHgAQAAAADAzhngY91pfIFACgAzRnZACCiCkxIqAJ2CA+bJiOL6LE+duHPCjt0BPY6Cew0OMOAEACQAAIAAAAgASAABAAAAAAAAAAAA==

> <PUBCHEM_IUPAC_OPENEYE_NAME>
(16E)-11-(2-pyrrolidin-1-ylethoxy)-14,19-dioxa-5,7,27-triazatetracyclo[19.3.1.12,6.18,12]heptacosa-1(24),2(27),3,5,8(26),9,11,16,21(25),22-decaene;hydrochloride

> <PUBCHEM_IUPAC_CAS_NAME>
(16E)-11-[2-(1-pyrrolidinyl)ethoxy]-14,19-dioxa-5,7,27-triazatetracyclo[19.3.1.12,6.18,12]heptacosa-1(24),2(27),3,5,8(26),9,11,16,21(25),22-decaene;hydrochloride

> <PUBCHEM_IUPAC_NAME_MARKUP>
(16<I>E</I>)-11-(2-pyrrolidin-1-ylethoxy)-14,19-dioxa-5,7,27-triazatetracyclo[19.3.1.1<SUP>2,6</SUP>.1<SUP>8,12</SUP>]heptacosa-1(24),2(27),3,5,8(26),9,11,16,21(25),22-decaene;hydrochloride

> <PUBCHEM_IUPAC_NAME>
(16E)-11-(2-pyrrolidin-1-ylethoxy)-14,19-dioxa-5,7,27-triazatetracyclo[19.3.1.12,6.18,12]heptacosa-1(24),2(27),3,5,8(26),9,11,16,21(25),22-decaene;hydrochloride

> <PUBCHEM_IUPAC_SYSTEMATIC_NAME>
(16E)-11-(2-pyrrolidin-1-ylethoxy)-14,19-dioxa-5,7,27-triazatetracyclo[19.3.1.12,6.18,12]heptacosa-1(24),2(27),3,5,8(26),9,11,16,21(25),22-decaene;hydrochloride

> <PUBCHEM_IUPAC_TRADITIONAL_NAME>
(16E)-11-(2-pyrrolidinoethoxy)-14,19-dioxa-5,7,27-triazatetracyclo[19.3.1.12,6.18,12]heptacosa-1(24),2(27),3,5,8(26),9,11,16,21(25),22-decaene;hydrochloride

> <PUBCHEM_IUPAC_INCHI>
InChI=1S/C28H32N4O3.ClH/c1-2-13-32(12-1)14-17-35-27-9-8-25-19-24(27)21-34-16-4-3-15-33-20-22-6-5-7-23(18-22)26-10-11-29-28(30-25)31-26;/h3-11,18-19H,1-2,12-17,20-21H2,(H,29,30,31);1H/b4-3+;

> <PUBCHEM_IUPAC_INCHIKEY>
BCWCXLSAGITLKT-BJILWQEISA-N

> <PUBCHEM_EXACT_MASS>
508.2241186

> <PUBCHEM_MOLECULAR_FORMULA>
C28H33ClN4O3

> <PUBCHEM_MOLECULAR_WEIGHT>
509.0

> <PUBCHEM_OPENEYE_CAN_SMILES>
C1CCN(C1)CCOC2=C3COCC=CCOCC4=CC(=CC=C4)C5=NC(=NC=C5)NC(=C3)C=C2.Cl

> <PUBCHEM_OPENEYE_ISO_SMILES>
C1CCN(C1)CCOC2=C3COC/C=C/COCC4=CC(=CC=C4)C5=NC(=NC=C5)NC(=C3)C=C2.Cl

> <PUBCHEM_CACTVS_TPSA>
68.7

> <PUBCHEM_MONOISOTOPIC_WEIGHT>
508.2241186

> <PUBCHEM_TOTAL_CHARGE>
0

> <PUBCHEM_HEAVY_ATOM_COUNT>
36

> <PUBCHEM_ATOM_DEF_STEREO_COUNT>
0

> <PUBCHEM_ATOM_UDEF_STEREO_COUNT>
0

> <PUBCHEM_BOND_DEF_STEREO_COUNT>
1

> <PUBCHEM_BOND_UDEF_STEREO_COUNT>
0

> <PUBCHEM_ISOTOPIC_ATOM_COUNT>
0

> <PUBCHEM_COMPONENT_COUNT>
2

> <PUBCHEM_CACTVS_TAUTO_COUNT>
-1

> <PUBCHEM_COORDINATE_TYPE>
1
5
255

> <PUBCHEM_BONDANNOTATIONS>
15  16  8
15  17  8
16  18  8
17  21  8
18  20  8
20  21  8
24  27  8
24  30  8
25  27  8
25  31  8
26  32  8
30  33  8
31  33  8
32  36  8
7  23  8
7  26  8
8  23  8
8  36  8

$$$$
44631938
  -OEChem-11282412102D

 46 48  0     1  0  0  0  0  0999 V2000
    3.0000    2.4470    0.0000 S   0  0  0  0  0  0  0  0  0  0  0  0
    2.0000    2.4470    0.0000 O   0  0  0  0  0  0  0  0  0  0  0  0
    4.0000    2.4470    0.0000 O   0  0  0  0  0  0  0  0  0  0  0  0
    6.4641   -0.5530    0.0000 N   0  0  3  0  0  0  0  0  0  0  0  0
    3.0000    3.4470    0.0000 N   0  0  0  0  0  0  0  0  0  0  0  0
    5.5981   -2.0530    0.0000 N   0  0  0  0  0  0  0  0  0  0  0  0
    8.2764   -3.3577    0.0000 N   0  0  0  0  0  0  0  0  0  0  0  0
    6.4641   -3.5530    0.0000 N   0  0  0  0  0  0  0  0  0  0  0  0
    3.8660    0.9470    0.0000 C   0  0  0  0  0  0  0  0  0  0  0  0
    5.5981   -0.0530    0.0000 C   0  0  0  0  0  0  0  0  0  0  0  0
    3.8660   -0.0530    0.0000 C   0  0  0  0  0  0  0  0  0  0  0  0
    4.7320    1.4470    0.0000 C   0  0  0  0  0  0  0  0  0  0  0  0
    4.7320   -0.5530    0.0000 C   0  0  0  0  0  0  0  0  0  0  0  0
    5.5981    0.9470    0.0000 C   0  0  0  0  0  0  0  0  0  0  0  0
    3.0000    1.4470    0.0000 C   0  0  0  0  0  0  0  0  0  0  0  0
    6.4641   -1.5530    0.0000 C   0  0  0  0  0  0  0  0  0  0  0  0
    7.3301   -0.0530    0.0000 C   0  0  0  0  0  0  0  0  0  0  0  0
    7.3301   -2.0530    0.0000 C   0  0  0  0  0  0  0  0  0  0  0  0
    7.3301   -3.0530    0.0000 C   0  0  0  0  0  0  0  0  0  0  0  0
    2.1340    3.9470    0.0000 C   0  0  0  0  0  0  0  0  0  0  0  0
    8.2764   -1.7482    0.0000 C   0  0  0  0  0  0  0  0  0  0  0  0
    5.5981   -3.0530    0.0000 C   0  0  0  0  0  0  0  0  0  0  0  0
    8.8600   -2.5530    0.0000 C   0  0  0  0  0  0  0  0  0  0  0  0
    3.8660    1.5670    0.0000 H   0  0  0  0  0  0  0  0  0  0  0  0
    5.5981   -0.6730    0.0000 H   0  0  0  0  0  0  0  0  0  0  0  0
    3.2554    0.0547    0.0000 H   0  0  0  0  0  0  0  0  0  0  0  0
    3.6540   -0.6356    0.0000 H   0  0  0  0  0  0  0  0  0  0  0  0
    5.1306    1.9220    0.0000 H   0  0  0  0  0  0  0  0  0  0  0  0
    4.3335    1.9220    0.0000 H   0  0  0  0  0  0  0  0  0  0  0  0
    4.3335   -1.0279    0.0000 H   0  0  0  0  0  0  0  0  0  0  0  0
    5.1306   -1.0279    0.0000 H   0  0  0  0  0  0  0  0  0  0  0  0
    6.2087    0.8394    0.0000 H   0  0  0  0  0  0  0  0  0  0  0  0
    5.8101    1.5296    0.0000 H   0  0  0  0  0  0  0  0  0  0  0  0
    2.3894    1.5547    0.0000 H   0  0  0  0  0  0  0  0  0  0  0  0
    2.7880    0.8644    0.0000 H   0  0  0  0  0  0  0  0  0  0  0  0
    7.6401   -0.5899    0.0000 H   0  0  0  0  0  0  0  0  0  0  0  0
    7.8671    0.2570    0.0000 H   0  0  0  0  0  0  0  0  0  0  0  0
    7.0201    0.4840    0.0000 H   0  0  0  0  0  0  0  0  0  0  0  0
    3.5369    3.7570    0.0000 H   0  0  0  0  0  0  0  0  0  0  0  0
    2.4440    4.4840    0.0000 H   0  0  0  0  0  0  0  0  0  0  0  0
    1.5970    4.2570    0.0000 H   0  0  0  0  0  0  0  0  0  0  0  0
    1.8240    3.4101    0.0000 H   0  0  0  0  0  0  0  0  0  0  0  0
    8.4690   -1.1589    0.0000 H   0  0  0  0  0  0  0  0  0  0  0  0
    5.0611   -3.3630    0.0000 H   0  0  0  0  0  0  0  0  0  0  0  0
    8.4690   -3.9470    0.0000 H   0  0  0  0  0  0  0  0  0  0  0  0
    9.4800   -2.5530    0.0000 H   0  0  0  0  0  0  0  0  0  0  0  0
  1  2  2  0  0  0  0
  1  3  2  0  0  0  0
  1  5  1  0  0  0  0
  1 15  1  0  0  0  0
  4 10  1  0  0  0  0
  4 16  1  0  0  0  0
  4 17  1  0  0  0  0
  5 20  1  0  0  0  0
  5 39  1  0  0  0  0
  6 16  2  0  0  0  0
  6 22  1  0  0  0  0
  7 19  1  0  0  0  0
  7 23  1  0  0  0  0
  7 45  1  0  0  0  0
  8 19  1  0  0  0  0
  8 22  2  0  0  0  0
  9 11  1  0  0  0  0
  9 12  1  0  0  0  0
  9 15  1  0  0  0  0
  9 24  1  0  0  0  0
 10 13  1  0  0  0  0
 10 14  1  0  0  0  0
 10 25  1  0  0  0  0
 11 13  1  0  0  0  0
 11 26  1  0  0  0  0
 11 27  1  0  0  0  0
 12 14  1  0  0  0  0
 12 28  1  0  0  0  0
 12 29  1  0  0  0  0
 13 30  1  0  0  0  0
 13 31  1  0  0  0  0
 14 32  1  0  0  0  0
 14 33  1  0  0  0  0
 15 34  1  0  0  0  0
 15 35  1  0  0  0  0
 16 18  1  0  0  0  0
 17 36  1  0  0  0  0
 17 37  1  0  0  0  0
 17 38  1  0  0  0  0
 18 19  2  0  0  0  0
 18 21  1  0  0  0  0
 20 40  1  0  0  0  0
 20 41  1  0  0  0  0
 20 42  1  0  0  0  0
 21 23  2  0  0  0  0
 21 43  1  0  0  0  0
 22 44  1  0  0  0  0
 23 46  1  0  0  0  0
M  END
> <PUBCHEM_COMPOUND_CID>
44631938

> <PUBCHEM_COMPOUND_CANONICALIZED>
1

> <PUBCHEM_CACTVS_COMPLEXITY>
487

> <PUBCHEM_CACTVS_HBOND_ACCEPTOR>
6

> <PUBCHEM_CACTVS_HBOND_DONOR>
2

> <PUBCHEM_CACTVS_ROTATABLE_BOND>
5

> <PUBCHEM_CACTVS_SUBSKEYS>
AAADceBzsABAAAAAAAAAAAAAAAAAAWAAAAA8QAAAAAAAAFgB+AAAHAQQQAAADSjFWwS/sN/JkAKgAjJnZHDCgCmxAqAJ2aA4ZJiIKMJAyMEEBAhIEALAQCEQgAAOAAAAAAAAAAAQAAAAAAAAAAAAAAAAAA==

> <PUBCHEM_IUPAC_OPENEYE_NAME>
N-methyl-1-[4-[methyl(7H-pyrrolo[2,3-d]pyrimidin-4-yl)amino]cyclohexyl]methanesulfonamide

> <PUBCHEM_IUPAC_CAS_NAME>
N-methyl-1-[4-[methyl(7H-pyrrolo[2,3-d]pyrimidin-4-yl)amino]cyclohexyl]methanesulfonamide

> <PUBCHEM_IUPAC_NAME_MARKUP>
<I>N</I>-methyl-1-[4-[methyl(7<I>H</I>-pyrrolo[2,3-d]pyrimidin-4-yl)amino]cyclohexyl]methanesulfonamide

> <PUBCHEM_IUPAC_NAME>
N-methyl-1-[4-[methyl(7H-pyrrolo[2,3-d]pyrimidin-4-yl)amino]cyclohexyl]methanesulfonamide

> <PUBCHEM_IUPAC_SYSTEMATIC_NAME>
N-methyl-1-[4-[methyl(7H-pyrrolo[2,3-d]pyrimidin-4-yl)amino]cyclohexyl]methanesulfonamide

> <PUBCHEM_IUPAC_TRADITIONAL_NAME>
N-methyl-1-[4-[methyl(7H-pyrrolo[2,3-d]pyrimidin-4-yl)amino]cyclohexyl]methanesulfonamide

> <PUBCHEM_IUPAC_INCHI>
InChI=1S/C15H23N5O2S/c1-16-23(21,22)9-11-3-5-12(6-4-11)20(2)15-13-7-8-17-14(13)18-10-19-15/h7-8,10-12,16H,3-6,9H2,1-2H3,(H,17,18,19)

> <PUBCHEM_IUPAC_INCHIKEY>
HJWLJNBZVZDLAQ-UHFFFAOYSA-N

> <PUBCHEM_XLOGP3_AA>
1.7

> <PUBCHEM_EXACT_MASS>
337.15724617

> <PUBCHEM_MOLECULAR_FORMULA>
C15H23N5O2S

> <PUBCHEM_MOLECULAR_WEIGHT>
337.4

> <PUBCHEM_OPENEYE_CAN_SMILES>
CNS(=O)(=O)CC1CCC(CC1)N(C)C2=NC=NC3=C2C=CN3

> <PUBCHEM_OPENEYE_ISO_SMILES>
CNS(=O)(=O)CC1CCC(CC1)N(C)C2=NC=NC3=C2C=CN3

> <PUBCHEM_CACTVS_TPSA>
99.4

> <PUBCHEM_MONOISOTOPIC_WEIGHT>
337.15724617

> <PUBCHEM_TOTAL_CHARGE>
0

> <PUBCHEM_HEAVY_ATOM_COUNT>
23

> <PUBCHEM_ATOM_DEF_STEREO_COUNT>
0

> <PUBCHEM_ATOM_UDEF_STEREO_COUNT>
0

> <PUBCHEM_BOND_DEF_STEREO_COUNT>
0

> <PUBCHEM_BOND_UDEF_STEREO_COUNT>
0

> <PUBCHEM_ISOTOPIC_ATOM_COUNT>
0

> <PUBCHEM_COMPONENT_COUNT>
1

> <PUBCHEM_CACTVS_TAUTO_COUNT>
-1

> <PUBCHEM_COORDINATE_TYPE>
1
5
255

> <PUBCHEM_BONDANNOTATIONS>
16  18  8
18  19  8
18  21  8
21  23  8
6  16  8
6  22  8
7  19  8
7  23  8
8  19  8
8  22  8

$$$$
46207957
  -OEChem-11282412102D

 70 74  0     0  0  0  0  0  0999 V2000
    5.4641   -1.0000    0.0000 F   0  0  0  0  0  0  0  0  0  0  0  0
   13.2583    1.5000    0.0000 F   0  0  0  0  0  0  0  0  0  0  0  0
   11.8923    1.8660    0.0000 F   0  0  0  0  0  0  0  0  0  0  0  0
   12.8923    0.1340    0.0000 F   0  0  0  0  0  0  0  0  0  0  0  0
    4.5981    0.5000    0.0000 O   0  0  0  0  0  0  0  0  0  0  0  0
   12.3923   -1.0000    0.0000 O   0  0  0  0  0  0  0  0  0  0  0  0
    8.9282    1.0000    0.0000 O   0  0  0  0  0  0  0  0  0  0  0  0
   14.5152   -1.2448    0.0000 O   0  0  0  0  0  0  0  0  0  0  0  0
    2.8660    3.5000    0.0000 N   0  0  0  0  0  0  0  0  0  0  0  0
    5.4641    2.0000    0.0000 N   0  0  0  0  0  0  0  0  0  0  0  0
   14.7882   -3.0000    0.0000 N   0  0  0  0  0  0  0  0  0  0  0  0
    8.9282   -1.0000    0.0000 N   0  0  0  0  0  0  0  0  0  0  0  0
   10.6603   -1.0000    0.0000 N   0  0  0  0  0  0  0  0  0  0  0  0
    9.7942    0.5000    0.0000 N   0  0  0  0  0  0  0  0  0  0  0  0
    4.5981    2.5000    0.0000 C   0  0  0  0  0  0  0  0  0  0  0  0
    4.5981    3.5000    0.0000 C   0  0  0  0  0  0  0  0  0  0  0  0
    3.7320    2.0000    0.0000 C   0  0  0  0  0  0  0  0  0  0  0  0
    3.7320    4.0000    0.0000 C   0  0  0  0  0  0  0  0  0  0  0  0
    2.8660    2.5000    0.0000 C   0  0  0  0  0  0  0  0  0  0  0  0
    2.0000    4.0000    0.0000 C   0  0  0  0  0  0  0  0  0  0  0  0
    5.4641    1.0000    0.0000 C   0  0  0  0  0  0  0  0  0  0  0  0
    6.3301    0.5000    0.0000 C   0  0  0  0  0  0  0  0  0  0  0  0
   14.2045   -3.8047    0.0000 C   0  0  0  0  0  0  0  0  0  0  0  0
   13.2583   -3.5000    0.0000 C   0  0  0  0  0  0  0  0  0  0  0  0
   13.2583   -2.5000    0.0000 C   0  0  0  0  0  0  0  0  0  0  0  0
    7.1962    1.0000    0.0000 C   0  0  0  0  0  0  0  0  0  0  0  0
    6.3301   -0.5000    0.0000 C   0  0  0  0  0  0  0  0  0  0  0  0
   14.2045   -2.1953    0.0000 C   0  0  0  0  0  0  0  0  0  0  0  0
   12.3923   -2.0000    0.0000 C   0  0  0  0  0  0  0  0  0  0  0  0
    8.0622    0.5000    0.0000 C   0  0  0  0  0  0  0  0  0  0  0  0
   12.3923   -4.0000    0.0000 C   0  0  0  0  0  0  0  0  0  0  0  0
    7.1962   -1.0000    0.0000 C   0  0  0  0  0  0  0  0  0  0  0  0
    8.0622   -0.5000    0.0000 C   0  0  0  0  0  0  0  0  0  0  0  0
   15.7882   -3.0000    0.0000 C   0  0  0  0  0  0  0  0  0  0  0  0
   11.5263   -2.5000    0.0000 C   0  0  0  0  0  0  0  0  0  0  0  0
   11.5263   -3.5000    0.0000 C   0  0  0  0  0  0  0  0  0  0  0  0
   11.5263   -0.5000    0.0000 C   0  0  0  0  0  0  0  0  0  0  0  0
    9.7942   -0.5000    0.0000 C   0  0  0  0  0  0  0  0  0  0  0  0
   11.5263    0.5000    0.0000 C   0  0  0  0  0  0  0  0  0  0  0  0
   10.6603    1.0000    0.0000 C   0  0  0  0  0  0  0  0  0  0  0  0
    8.9282    2.0000    0.0000 C   0  0  0  0  0  0  0  0  0  0  0  0
   12.3923    1.0000    0.0000 C   0  0  0  0  0  0  0  0  0  0  0  0
    4.5981    1.8800    0.0000 H   0  0  0  0  0  0  0  0  0  0  0  0
    5.2087    3.3923    0.0000 H   0  0  0  0  0  0  0  0  0  0  0  0
    4.8101    4.0826    0.0000 H   0  0  0  0  0  0  0  0  0  0  0  0
    3.3335    1.5250    0.0000 H   0  0  0  0  0  0  0  0  0  0  0  0
    4.1306    1.5250    0.0000 H   0  0  0  0  0  0  0  0  0  0  0  0
    4.1306    4.4750    0.0000 H   0  0  0  0  0  0  0  0  0  0  0  0
    3.3335    4.4750    0.0000 H   0  0  0  0  0  0  0  0  0  0  0  0
    2.2554    2.6077    0.0000 H   0  0  0  0  0  0  0  0  0  0  0  0
    2.6540    1.9174    0.0000 H   0  0  0  0  0  0  0  0  0  0  0  0
    6.0010    2.3100    0.0000 H   0  0  0  0  0  0  0  0  0  0  0  0
    2.3100    4.5369    0.0000 H   0  0  0  0  0  0  0  0  0  0  0  0
    1.4631    4.3100    0.0000 H   0  0  0  0  0  0  0  0  0  0  0  0
    1.6900    3.4631    0.0000 H   0  0  0  0  0  0  0  0  0  0  0  0
   13.9535   -4.3716    0.0000 H   0  0  0  0  0  0  0  0  0  0  0  0
   14.7419   -4.1140    0.0000 H   0  0  0  0  0  0  0  0  0  0  0  0
    7.1962    1.6200    0.0000 H   0  0  0  0  0  0  0  0  0  0  0  0
   12.3923   -4.6200    0.0000 H   0  0  0  0  0  0  0  0  0  0  0  0
    7.1962   -1.6200    0.0000 H   0  0  0  0  0  0  0  0  0  0  0  0
   15.7882   -3.6200    0.0000 H   0  0  0  0  0  0  0  0  0  0  0  0
   16.4082   -3.0000    0.0000 H   0  0  0  0  0  0  0  0  0  0  0  0
   15.7882   -2.3800    0.0000 H   0  0  0  0  0  0  0  0  0  0  0  0
   10.9893   -2.1900    0.0000 H   0  0  0  0  0  0  0  0  0  0  0  0
   10.9893   -3.8100    0.0000 H   0  0  0  0  0  0  0  0  0  0  0  0
    8.9282   -1.6200    0.0000 H   0  0  0  0  0  0  0  0  0  0  0  0
   10.6603    1.6200    0.0000 H   0  0  0  0  0  0  0  0  0  0  0  0
    9.5482    2.0000    0.0000 H   0  0  0  0  0  0  0  0  0  0  0  0
    8.9282    2.6200    0.0000 H   0  0  0  0  0  0  0  0  0  0  0  0
    8.3082    2.0000    0.0000 H   0  0  0  0  0  0  0  0  0  0  0  0
  1 27  1  0  0  0  0
  2 42  1  0  0  0  0
  3 42  1  0  0  0  0
  4 42  1  0  0  0  0
  5 21  2  0  0  0  0
  6 29  1  0  0  0  0
  6 37  1  0  0  0  0
  7 30  1  0  0  0  0
  7 41  1  0  0  0  0
  8 28  2  0  0  0  0
  9 18  1  0  0  0  0
  9 19  1  0  0  0  0
  9 20  1  0  0  0  0
 10 15  1  0  0  0  0
 10 21  1  0  0  0  0
 10 52  1  0  0  0  0
 11 23  1  0  0  0  0
 11 28  1  0  0  0  0
 11 34  1  0  0  0  0
 12 33  1  0  0  0  0
 12 38  1  0  0  0  0
 12 66  1  0  0  0  0
 13 37  2  0  0  0  0
 13 38  1  0  0  0  0
 14 38  2  0  0  0  0
 14 40  1  0  0  0  0
 15 16  1  0  0  0  0
 15 17  1  0  0  0  0
 15 43  1  0  0  0  0
 16 18  1  0  0  0  0
 16 44  1  0  0  0  0
 16 45  1  0  0  0  0
 17 19  1  0  0  0  0
 17 46  1  0  0  0  0
 17 47  1  0  0  0  0
 18 48  1  0  0  0  0
 18 49  1  0  0  0  0
 19 50  1  0  0  0  0
 19 51  1  0  0  0  0
 20 53  1  0  0  0  0
 20 54  1  0  0  0  0
 20 55  1  0  0  0  0
 21 22  1  0  0  0  0
 22 26  2  0  0  0  0
 22 27  1  0  0  0  0
 23 24  1  0  0  0  0
 23 56  1  0  0  0  0
 23 57  1  0  0  0  0
 24 25  2  0  0  0  0
 24 31  1  0  0  0  0
 25 28  1  0  0  0  0
 25 29  1  0  0  0  0
 26 30  1  0  0  0  0
 26 58  1  0  0  0  0
 27 32  2  0  0  0  0
 29 35  2  0  0  0  0
 30 33  2  0  0  0  0
 31 36  2  0  0  0  0
 31 59  1  0  0  0  0
 32 33  1  0  0  0  0
 32 60  1  0  0  0  0
 34 61  1  0  0  0  0
 34 62  1  0  0  0  0
 34 63  1  0  0  0  0
 35 36  1  0  0  0  0
 35 64  1  0  0  0  0
 36 65  1  0  0  0  0
 37 39  1  0  0  0  0
 39 40  2  0  0  0  0
 39 42  1  0  0  0  0
 40 67  1  0  0  0  0
 41 68  1  0  0  0  0
 41 69  1  0  0  0  0
 41 70  1  0  0  0  0
M  END
> <PUBCHEM_COMPOUND_CID>
46207957

> <PUBCHEM_COMPOUND_CANONICALIZED>
1

> <PUBCHEM_CACTVS_COMPLEXITY>
954

> <PUBCHEM_CACTVS_HBOND_ACCEPTOR>
12

> <PUBCHEM_CACTVS_HBOND_DONOR>
2

> <PUBCHEM_CACTVS_ROTATABLE_BOND>
7

> <PUBCHEM_CACTVS_SUBSKEYS>
AAADceB7ucAAAAAAAAAAAAAAAAAAAWAAAAA8eIEAAAAAAFgB0AAAHwAQAAAADCzBmh4/1pfIFACoAjV3dACCiCk1IqAJ2KEvbNiOLrbE/duPPWju9hvY6ae+ybCeiAABAAAYEAAQAAIAADAgAAAAAAAAAA==

> <PUBCHEM_IUPAC_OPENEYE_NAME>
2-fluoro-5-methoxy-4-[[4-(2-methyl-3-oxo-isoindolin-4-yl)oxy-5-(trifluoromethyl)pyrimidin-2-yl]amino]-N-(1-methyl-4-piperidyl)benzamide

> <PUBCHEM_IUPAC_CAS_NAME>
2-fluoro-5-methoxy-4-[[4-[(2-methyl-3-oxo-1H-isoindol-4-yl)oxy]-5-(trifluoromethyl)-2-pyrimidinyl]amino]-N-(1-methyl-4-piperidinyl)benzamide

> <PUBCHEM_IUPAC_NAME_MARKUP>
2-fluoro-5-methoxy-4-[[4-[(2-methyl-3-oxo-1<I>H</I>-isoindol-4-yl)oxy]-5-(trifluoromethyl)pyrimidin-2-yl]amino]-<I>N</I>-(1-methylpiperidin-4-yl)benzamide

> <PUBCHEM_IUPAC_NAME>
2-fluoro-5-methoxy-4-[[4-[(2-methyl-3-oxo-1H-isoindol-4-yl)oxy]-5-(trifluoromethyl)pyrimidin-2-yl]amino]-N-(1-methylpiperidin-4-yl)benzamide

> <PUBCHEM_IUPAC_SYSTEMATIC_NAME>
2-fluoranyl-5-methoxy-4-[[4-[(2-methyl-3-oxidanylidene-1H-isoindol-4-yl)oxy]-5-(trifluoromethyl)pyrimidin-2-yl]amino]-N-(1-methylpiperidin-4-yl)benzamide

> <PUBCHEM_IUPAC_TRADITIONAL_NAME>
2-fluoro-4-[[4-(3-keto-2-methyl-isoindolin-4-yl)oxy-5-(trifluoromethyl)pyrimidin-2-yl]amino]-5-methoxy-N-(1-methyl-4-piperidyl)benzamide

> <PUBCHEM_IUPAC_INCHI>
InChI=1S/C28H28F4N6O4/c1-37-9-7-16(8-10-37)34-24(39)17-11-22(41-3)20(12-19(17)29)35-27-33-13-18(28(30,31)32)25(36-27)42-21-6-4-5-15-14-38(2)26(40)23(15)21/h4-6,11-13,16H,7-10,14H2,1-3H3,(H,34,39)(H,33,35,36)

> <PUBCHEM_IUPAC_INCHIKEY>
ULMMVBPTWVRPSI-UHFFFAOYSA-N

> <PUBCHEM_XLOGP3_AA>
3.8

> <PUBCHEM_EXACT_MASS>
588.21081604

> <PUBCHEM_MOLECULAR_FORMULA>
C28H28F4N6O4

> <PUBCHEM_MOLECULAR_WEIGHT>
588.6

> <PUBCHEM_OPENEYE_CAN_SMILES>
CN1CCC(CC1)NC(=O)C2=CC(=C(C=C2F)NC3=NC=C(C(=N3)OC4=CC=CC5=C4C(=O)N(C5)C)C(F)(F)F)OC

> <PUBCHEM_OPENEYE_ISO_SMILES>
CN1CCC(CC1)NC(=O)C2=CC(=C(C=C2F)NC3=NC=C(C(=N3)OC4=CC=CC5=C4C(=O)N(C5)C)C(F)(F)F)OC

> <PUBCHEM_CACTVS_TPSA>
109

> <PUBCHEM_MONOISOTOPIC_WEIGHT>
588.21081604

> <PUBCHEM_TOTAL_CHARGE>
0

> <PUBCHEM_HEAVY_ATOM_COUNT>
42

> <PUBCHEM_ATOM_DEF_STEREO_COUNT>
0

> <PUBCHEM_ATOM_UDEF_STEREO_COUNT>
0

> <PUBCHEM_BOND_DEF_STEREO_COUNT>
0

> <PUBCHEM_BOND_UDEF_STEREO_COUNT>
0

> <PUBCHEM_ISOTOPIC_ATOM_COUNT>
0

> <PUBCHEM_COMPONENT_COUNT>
1

> <PUBCHEM_CACTVS_TAUTO_COUNT>
-1

> <PUBCHEM_COORDINATE_TYPE>
1
5
255

> <PUBCHEM_BONDANNOTATIONS>
13  37  8
13  38  8
14  38  8
14  40  8
22  26  8
22  27  8
24  25  8
24  31  8
25  29  8
26  30  8
27  32  8
29  35  8
30  33  8
31  36  8
32  33  8
35  36  8
37  39  8
39  40  8

$$$$
126495573
  -OEChem-11282412102D

 54 58  0     0  0  0  0  0  0999 V2000
    9.3010   -1.1034    0.0000 S   0  0  0  0  0  0  0  0  0  0  0  0
   10.5436    4.3081    0.0000 F   0  0  0  0  0  0  0  0  0  0  0  0
   11.2580    0.9185    0.0000 O   0  0  0  0  0  0  0  0  0  0  0  0
    3.8080   -1.0011    0.0000 N   0  0  0  0  0  0  0  0  0  0  0  0
    2.5878   -3.7417    0.0000 N   0  0  0  0  0  0  0  0  0  0  0  0
    3.3080   -0.1351    0.0000 N   0  0  0  0  0  0  0  0  0  0  0  0
    5.7567    0.7013    0.0000 N   0  0  0  0  0  0  0  0  0  0  0  0
    7.4888    0.7013    0.0000 N   0  0  0  0  0  0  0  0  0  0  0  0
    6.6227   -0.7987    0.0000 N   0  0  0  0  0  0  0  0  0  0  0  0
    3.4013   -1.9146    0.0000 C   0  0  0  0  0  0  0  0  0  0  0  0
    2.4067   -2.0192    0.0000 C   0  0  0  0  0  0  0  0  0  0  0  0
    3.9890   -2.7237    0.0000 C   0  0  0  0  0  0  0  0  0  0  0  0
    2.0000   -2.9327    0.0000 C   0  0  0  0  0  0  0  0  0  0  0  0
    3.5823   -3.6372    0.0000 C   0  0  0  0  0  0  0  0  0  0  0  0
    4.7861   -0.7932    0.0000 C   0  0  0  0  0  0  0  0  0  0  0  0
    4.8907    0.2013    0.0000 C   0  0  0  0  0  0  0  0  0  0  0  0
    3.9771    0.6081    0.0000 C   0  0  0  0  0  0  0  0  0  0  0  0
    6.6227    0.2013    0.0000 C   0  0  0  0  0  0  0  0  0  0  0  0
    9.3010    0.5061    0.0000 C   0  0  0  0  0  0  0  0  0  0  0  0
    8.3548    0.2013    0.0000 C   0  0  0  0  0  0  0  0  0  0  0  0
    8.3548   -0.7987    0.0000 C   0  0  0  0  0  0  0  0  0  0  0  0
    9.8846   -0.2987    0.0000 C   0  0  0  0  0  0  0  0  0  0  0  0
    9.6117    1.4566    0.0000 C   0  0  0  0  0  0  0  0  0  0  0  0
    7.4888   -1.2987    0.0000 C   0  0  0  0  0  0  0  0  0  0  0  0
   10.5902    1.6628    0.0000 C   0  0  0  0  0  0  0  0  0  0  0  0
   10.8846   -0.2987    0.0000 C   0  0  0  0  0  0  0  0  0  0  0  0
    8.9438    2.2009    0.0000 C   0  0  0  0  0  0  0  0  0  0  0  0
   10.9008    2.6133    0.0000 C   0  0  0  0  0  0  0  0  0  0  0  0
    9.2545    3.1514    0.0000 C   0  0  0  0  0  0  0  0  0  0  0  0
   10.2330    3.3576    0.0000 C   0  0  0  0  0  0  0  0  0  0  0  0
   12.2365    1.1247    0.0000 C   0  0  0  0  0  0  0  0  0  0  0  0
    4.0179   -1.8498    0.0000 H   0  0  0  0  0  0  0  0  0  0  0  0
    2.4500   -1.4007    0.0000 H   0  0  0  0  0  0  0  0  0  0  0  0
    1.8052   -1.8692    0.0000 H   0  0  0  0  0  0  0  0  0  0  0  0
    4.5030   -3.0704    0.0000 H   0  0  0  0  0  0  0  0  0  0  0  0
    4.4197   -2.2777    0.0000 H   0  0  0  0  0  0  0  0  0  0  0  0
    1.4860   -2.5860    0.0000 H   0  0  0  0  0  0  0  0  0  0  0  0
    1.5693   -3.3787    0.0000 H   0  0  0  0  0  0  0  0  0  0  0  0
    3.5391   -4.2557    0.0000 H   0  0  0  0  0  0  0  0  0  0  0  0
    4.1839   -3.7872    0.0000 H   0  0  0  0  0  0  0  0  0  0  0  0
    2.3356   -4.3081    0.0000 H   0  0  0  0  0  0  0  0  0  0  0  0
    5.2469   -1.2081    0.0000 H   0  0  0  0  0  0  0  0  0  0  0  0
    3.8482    1.2145    0.0000 H   0  0  0  0  0  0  0  0  0  0  0  0
    5.7567    1.3213    0.0000 H   0  0  0  0  0  0  0  0  0  0  0  0
    7.4888   -1.9187    0.0000 H   0  0  0  0  0  0  0  0  0  0  0  0
   10.8846   -0.9187    0.0000 H   0  0  0  0  0  0  0  0  0  0  0  0
   11.5046   -0.2987    0.0000 H   0  0  0  0  0  0  0  0  0  0  0  0
   10.8846    0.3213    0.0000 H   0  0  0  0  0  0  0  0  0  0  0  0
    8.3371    2.0730    0.0000 H   0  0  0  0  0  0  0  0  0  0  0  0
   11.5075    2.7412    0.0000 H   0  0  0  0  0  0  0  0  0  0  0  0
    8.8404    3.6129    0.0000 H   0  0  0  0  0  0  0  0  0  0  0  0
   12.3644    0.5180    0.0000 H   0  0  0  0  0  0  0  0  0  0  0  0
   12.8432    1.2526    0.0000 H   0  0  0  0  0  0  0  0  0  0  0  0
   12.1087    1.7314    0.0000 H   0  0  0  0  0  0  0  0  0  0  0  0
  1 21  1  0  0  0  0
  1 22  1  0  0  0  0
  2 30  1  0  0  0  0
  3 25  1  0  0  0  0
  3 31  1  0  0  0  0
  4  6  1  0  0  0  0
  4 10  1  0  0  0  0
  4 15  1  0  0  0  0
  5 13  1  0  0  0  0
  5 14  1  0  0  0  0
  5 41  1  0  0  0  0
  6 17  2  0  0  0  0
  7 16  1  0  0  0  0
  7 18  1  0  0  0  0
  7 44  1  0  0  0  0
  8 18  1  0  0  0  0
  8 20  2  0  0  0  0
  9 18  2  0  0  0  0
  9 24  1  0  0  0  0
 10 11  1  0  0  0  0
 10 12  1  0  0  0  0
 10 32  1  0  0  0  0
 11 13  1  0  0  0  0
 11 33  1  0  0  0  0
 11 34  1  0  0  0  0
 12 14  1  0  0  0  0
 12 35  1  0  0  0  0
 12 36  1  0  0  0  0
 13 37  1  0  0  0  0
 13 38  1  0  0  0  0
 14 39  1  0  0  0  0
 14 40  1  0  0  0  0
 15 16  2  0  0  0  0
 15 42  1  0  0  0  0
 16 17  1  0  0  0  0
 17 43  1  0  0  0  0
 19 20  1  0  0  0  0
 19 22  2  0  0  0  0
 19 23  1  0  0  0  0
 20 21  1  0  0  0  0
 21 24  2  0  0  0  0
 22 26  1  0  0  0  0
 23 25  2  0  0  0  0
 23 27  1  0  0  0  0
 24 45  1  0  0  0  0
 25 28  1  0  0  0  0
 26 46  1  0  0  0  0
 26 47  1  0  0  0  0
 26 48  1  0  0  0  0
 27 29  2  0  0  0  0
 27 49  1  0  0  0  0
 28 30  2  0  0  0  0
 28 50  1  0  0  0  0
 29 30  1  0  0  0  0
 29 51  1  0  0  0  0
 31 52  1  0  0  0  0
 31 53  1  0  0  0  0
 31 54  1  0  0  0  0
M  END
> <PUBCHEM_COMPOUND_CID>
126495573

> <PUBCHEM_COMPOUND_CANONICALIZED>
1

> <PUBCHEM_CACTVS_COMPLEXITY>
598

> <PUBCHEM_CACTVS_HBOND_ACCEPTOR>
8

> <PUBCHEM_CACTVS_HBOND_DONOR>
2

> <PUBCHEM_CACTVS_ROTATABLE_BOND>
5

> <PUBCHEM_CACTVS_SUBSKEYS>
AAADceB7oQBAAAAAAAAAAAAAAAAAAWJAAAA8WIAAAAAAAFgB/gAAHwQYAAAADCzB3g4/17bIFAimAzRnZACTrKkxurBZ2LwufJiMbqLk+duUtCxs2BPo6CewwOAOgAAAAAAIAAAAAAAAABAAAAAAAAAAAA==

> <PUBCHEM_IUPAC_OPENEYE_NAME>
7-(4-fluoro-2-methoxy-phenyl)-6-methyl-N-[1-(4-piperidyl)pyrazol-4-yl]thieno[3,2-d]pyrimidin-2-amine

> <PUBCHEM_IUPAC_CAS_NAME>
7-(4-fluoro-2-methoxyphenyl)-6-methyl-N-[1-(4-piperidinyl)-4-pyrazolyl]-2-thieno[3,2-d]pyrimidinamine

> <PUBCHEM_IUPAC_NAME_MARKUP>
7-(4-fluoro-2-methoxyphenyl)-6-methyl-<I>N</I>-(1-piperidin-4-ylpyrazol-4-yl)thieno[3,2-d]pyrimidin-2-amine

> <PUBCHEM_IUPAC_NAME>
7-(4-fluoro-2-methoxyphenyl)-6-methyl-N-(1-piperidin-4-ylpyrazol-4-yl)thieno[3,2-d]pyrimidin-2-amine

> <PUBCHEM_IUPAC_SYSTEMATIC_NAME>
7-(4-fluoranyl-2-methoxy-phenyl)-6-methyl-N-(1-piperidin-4-ylpyrazol-4-yl)thieno[3,2-d]pyrimidin-2-amine

> <PUBCHEM_IUPAC_TRADITIONAL_NAME>
[7-(4-fluoro-2-methoxy-phenyl)-6-methyl-thieno[3,2-d]pyrimidin-2-yl]-[1-(4-piperidyl)pyrazol-4-yl]amine

> <PUBCHEM_IUPAC_INCHI>
InChI=1S/C22H23FN6OS/c1-13-20(17-4-3-14(23)9-18(17)30-2)21-19(31-13)11-25-22(28-21)27-15-10-26-29(12-15)16-5-7-24-8-6-16/h3-4,9-12,16,24H,5-8H2,1-2H3,(H,25,27,28)

> <PUBCHEM_IUPAC_INCHIKEY>
AVIOBQFPAGEICQ-UHFFFAOYSA-N

> <PUBCHEM_XLOGP3_AA>
3.6

> <PUBCHEM_EXACT_MASS>
438.16380871

> <PUBCHEM_MOLECULAR_FORMULA>
C22H23FN6OS

> <PUBCHEM_MOLECULAR_WEIGHT>
438.5

> <PUBCHEM_OPENEYE_CAN_SMILES>
CC1=C(C2=NC(=NC=C2S1)NC3=CN(N=C3)C4CCNCC4)C5=C(C=C(C=C5)F)OC

> <PUBCHEM_OPENEYE_ISO_SMILES>
CC1=C(C2=NC(=NC=C2S1)NC3=CN(N=C3)C4CCNCC4)C5=C(C=C(C=C5)F)OC

> <PUBCHEM_CACTVS_TPSA>
105

> <PUBCHEM_MONOISOTOPIC_WEIGHT>
438.16380871

> <PUBCHEM_TOTAL_CHARGE>
0

> <PUBCHEM_HEAVY_ATOM_COUNT>
31

> <PUBCHEM_ATOM_DEF_STEREO_COUNT>
0

> <PUBCHEM_ATOM_UDEF_STEREO_COUNT>
0

> <PUBCHEM_BOND_DEF_STEREO_COUNT>
0

> <PUBCHEM_BOND_UDEF_STEREO_COUNT>
0

> <PUBCHEM_ISOTOPIC_ATOM_COUNT>
0

> <PUBCHEM_COMPONENT_COUNT>
1

> <PUBCHEM_CACTVS_TAUTO_COUNT>
-1

> <PUBCHEM_COORDINATE_TYPE>
1
5
255

> <PUBCHEM_BONDANNOTATIONS>
1  21  8
1  22  8
15  16  8
16  17  8
19  20  8
19  22  8
20  21  8
21  24  8
23  25  8
23  27  8
25  28  8
27  29  8
28  30  8
29  30  8
4  15  8
4  6  8
6  17  8
8  18  8
8  20  8
9  18  8
9  24  8

$$$$
10074640
  -OEChem-11282412102D

 66 70  0     0  0  0  0  0  0999 V2000
    7.0916    5.6433    0.0000 S   0  0  0  0  0  0  0  0  0  0  0  0
    7.1962   -0.3512    0.0000 O   0  0  0  0  0  0  0  0  0  0  0  0
    2.8660   -2.8512    0.0000 N   0  0  0  0  0  0  0  0  0  0  0  0
    2.8660   -4.8512    0.0000 N   0  0  0  0  0  0  0  0  0  0  0  0
    6.3301    1.1488    0.0000 N   0  0  0  0  0  0  0  0  0  0  0  0
    8.0622    4.1488    0.0000 N   0  0  0  0  0  0  0  0  0  0  0  0
    6.2826    4.2420    0.0000 N   0  0  0  0  0  0  0  0  0  0  0  0
    3.0366    5.5851    0.0000 N   0  0  0  0  0  0  0  0  0  0  0  0
    2.0000   -3.3512    0.0000 C   0  0  0  0  0  0  0  0  0  0  0  0
    3.7320   -3.3512    0.0000 C   0  0  0  0  0  0  0  0  0  0  0  0
    2.0000   -4.3512    0.0000 C   0  0  0  0  0  0  0  0  0  0  0  0
    3.7320   -4.3512    0.0000 C   0  0  0  0  0  0  0  0  0  0  0  0
    2.8660   -1.8512    0.0000 C   0  0  0  0  0  0  0  0  0  0  0  0
    2.8660   -5.8512    0.0000 C   0  0  0  0  0  0  0  0  0  0  0  0
    3.7320   -1.3512    0.0000 C   0  0  0  0  0  0  0  0  0  0  0  0
    3.7320   -0.3512    0.0000 C   0  0  0  0  0  0  0  0  0  0  0  0
    4.5981   -1.8512    0.0000 C   0  0  0  0  0  0  0  0  0  0  0  0
    4.5981    0.1488    0.0000 C   0  0  0  0  0  0  0  0  0  0  0  0
    5.4641   -1.3512    0.0000 C   0  0  0  0  0  0  0  0  0  0  0  0
    5.4641   -0.3512    0.0000 C   0  0  0  0  0  0  0  0  0  0  0  0
    6.3301    0.1488    0.0000 C   0  0  0  0  0  0  0  0  0  0  0  0
    7.1962    1.6488    0.0000 C   0  0  0  0  0  0  0  0  0  0  0  0
    8.0622    3.1488    0.0000 C   0  0  0  0  0  0  0  0  0  0  0  0
    7.1962    2.6488    0.0000 C   0  0  0  0  0  0  0  0  0  0  0  0
    8.9282    2.6488    0.0000 C   0  0  0  0  0  0  0  0  0  0  0  0
    8.0622    1.1488    0.0000 C   0  0  0  0  0  0  0  0  0  0  0  0
    8.9282    1.6488    0.0000 C   0  0  0  0  0  0  0  0  0  0  0  0
    9.7942    3.1488    0.0000 C   0  0  0  0  0  0  0  0  0  0  0  0
    7.1962    4.6488    0.0000 C   0  0  0  0  0  0  0  0  0  0  0  0
    5.6135    4.9852    0.0000 C   0  0  0  0  0  0  0  0  0  0  0  0
    6.1135    5.8512    0.0000 C   0  0  0  0  0  0  0  0  0  0  0  0
    4.6190    4.8807    0.0000 C   0  0  0  0  0  0  0  0  0  0  0  0
    4.2122    3.9671    0.0000 C   0  0  0  0  0  0  0  0  0  0  0  0
    4.0312    5.6897    0.0000 C   0  0  0  0  0  0  0  0  0  0  0  0
    3.2177    3.8626    0.0000 C   0  0  0  0  0  0  0  0  0  0  0  0
    2.6299    4.6716    0.0000 C   0  0  0  0  0  0  0  0  0  0  0  0
    1.7880   -2.7686    0.0000 H   0  0  0  0  0  0  0  0  0  0  0  0
    1.3894   -3.4589    0.0000 H   0  0  0  0  0  0  0  0  0  0  0  0
    4.3426   -3.4589    0.0000 H   0  0  0  0  0  0  0  0  0  0  0  0
    3.9441   -2.7686    0.0000 H   0  0  0  0  0  0  0  0  0  0  0  0
    1.3894   -4.2436    0.0000 H   0  0  0  0  0  0  0  0  0  0  0  0
    1.7880   -4.9338    0.0000 H   0  0  0  0  0  0  0  0  0  0  0  0
    3.9441   -4.9338    0.0000 H   0  0  0  0  0  0  0  0  0  0  0  0
    4.3426   -4.2436    0.0000 H   0  0  0  0  0  0  0  0  0  0  0  0
    2.6540   -1.2686    0.0000 H   0  0  0  0  0  0  0  0  0  0  0  0
    2.2554   -1.9589    0.0000 H   0  0  0  0  0  0  0  0  0  0  0  0
    2.2460   -5.8512    0.0000 H   0  0  0  0  0  0  0  0  0  0  0  0
    2.8660   -6.4712    0.0000 H   0  0  0  0  0  0  0  0  0  0  0  0
    3.4860   -5.8512    0.0000 H   0  0  0  0  0  0  0  0  0  0  0  0
    3.1951   -0.0412    0.0000 H   0  0  0  0  0  0  0  0  0  0  0  0
    4.5981   -2.4712    0.0000 H   0  0  0  0  0  0  0  0  0  0  0  0
    4.5981    0.7688    0.0000 H   0  0  0  0  0  0  0  0  0  0  0  0
    6.0010   -1.6612    0.0000 H   0  0  0  0  0  0  0  0  0  0  0  0
    5.7932    1.4588    0.0000 H   0  0  0  0  0  0  0  0  0  0  0  0
    6.6592    2.9588    0.0000 H   0  0  0  0  0  0  0  0  0  0  0  0
    8.0622    0.5288    0.0000 H   0  0  0  0  0  0  0  0  0  0  0  0
    9.4651    1.3388    0.0000 H   0  0  0  0  0  0  0  0  0  0  0  0
    8.5991    4.4588    0.0000 H   0  0  0  0  0  0  0  0  0  0  0  0
   10.1042    2.6118    0.0000 H   0  0  0  0  0  0  0  0  0  0  0  0
   10.3312    3.4588    0.0000 H   0  0  0  0  0  0  0  0  0  0  0  0
    9.4842    3.6857    0.0000 H   0  0  0  0  0  0  0  0  0  0  0  0
    5.8613    6.4176    0.0000 H   0  0  0  0  0  0  0  0  0  0  0  0
    4.5766    3.4655    0.0000 H   0  0  0  0  0  0  0  0  0  0  0  0
    4.2834    6.2561    0.0000 H   0  0  0  0  0  0  0  0  0  0  0  0
    2.9655    3.2962    0.0000 H   0  0  0  0  0  0  0  0  0  0  0  0
    2.0133    4.6068    0.0000 H   0  0  0  0  0  0  0  0  0  0  0  0
  1 29  1  0  0  0  0
  1 31  1  0  0  0  0
  2 21  2  0  0  0  0
  3  9  1  0  0  0  0
  3 10  1  0  0  0  0
  3 13  1  0  0  0  0
  4 11  1  0  0  0  0
  4 12  1  0  0  0  0
  4 14  1  0  0  0  0
  5 21  1  0  0  0  0
  5 22  1  0  0  0  0
  5 54  1  0  0  0  0
  6 23  1  0  0  0  0
  6 29  1  0  0  0  0
  6 58  1  0  0  0  0
  7 29  2  0  0  0  0
  7 30  1  0  0  0  0
  8 34  1  0  0  0  0
  8 36  2  0  0  0  0
  9 11  1  0  0  0  0
  9 37  1  0  0  0  0
  9 38  1  0  0  0  0
 10 12  1  0  0  0  0
 10 39  1  0  0  0  0
 10 40  1  0  0  0  0
 11 41  1  0  0  0  0
 11 42  1  0  0  0  0
 12 43  1  0  0  0  0
 12 44  1  0  0  0  0
 13 15  1  0  0  0  0
 13 45  1  0  0  0  0
 13 46  1  0  0  0  0
 14 47  1  0  0  0  0
 14 48  1  0  0  0  0
 14 49  1  0  0  0  0
 15 16  2  0  0  0  0
 15 17  1  0  0  0  0
 16 18  1  0  0  0  0
 16 50  1  0  0  0  0
 17 19  2  0  0  0  0
 17 51  1  0  0  0  0
 18 20  2  0  0  0  0
 18 52  1  0  0  0  0
 19 20  1  0  0  0  0
 19 53  1  0  0  0  0
 20 21  1  0  0  0  0
 22 24  2  0  0  0  0
 22 26  1  0  0  0  0
 23 24  1  0  0  0  0
 23 25  2  0  0  0  0
 24 55  1  0  0  0  0
 25 27  1  0  0  0  0
 25 28  1  0  0  0  0
 26 27  2  0  0  0  0
 26 56  1  0  0  0  0
 27 57  1  0  0  0  0
 28 59  1  0  0  0  0
 28 60  1  0  0  0  0
 28 61  1  0  0  0  0
 30 31  2  0  0  0  0
 30 32  1  0  0  0  0
 31 62  1  0  0  0  0
 32 33  1  0  0  0  0
 32 34  2  0  0  0  0
 33 35  2  0  0  0  0
 33 63  1  0  0  0  0
 34 64  1  0  0  0  0
 35 36  1  0  0  0  0
 35 65  1  0  0  0  0
 36 66  1  0  0  0  0
M  END
> <PUBCHEM_COMPOUND_CID>
10074640

> <PUBCHEM_COMPOUND_CANONICALIZED>
1

> <PUBCHEM_CACTVS_COMPLEXITY>
696

> <PUBCHEM_CACTVS_HBOND_ACCEPTOR>
7

> <PUBCHEM_CACTVS_HBOND_DONOR>
2

> <PUBCHEM_CACTVS_ROTATABLE_BOND>
7

> <PUBCHEM_CACTVS_SUBSKEYS>
AAADceB7oABAAAAAAAAAAAAAAAAAAWAAAAA8eIEAAAAAAAAB9AAAHgQQAAAADAjF3gS/0ZPIEAisAzV3dACC8Kl1CjkJ2DU4ZNiIYPLg3dGUIQholALIyacYiACOSAAAAAQCAACQAAAACAQAAAAAAAAAAA==

> <PUBCHEM_IUPAC_OPENEYE_NAME>
4-[(4-methylpiperazin-1-yl)methyl]-N-[4-methyl-3-[[4-(3-pyridyl)thiazol-2-yl]amino]phenyl]benzamide

> <PUBCHEM_IUPAC_CAS_NAME>
4-[(4-methyl-1-piperazinyl)methyl]-N-[4-methyl-3-[[4-(3-pyridinyl)-2-thiazolyl]amino]phenyl]benzamide

> <PUBCHEM_IUPAC_NAME_MARKUP>
4-[(4-methylpiperazin-1-yl)methyl]-<I>N</I>-[4-methyl-3-[(4-pyridin-3-yl-1,3-thiazol-2-yl)amino]phenyl]benzamide

> <PUBCHEM_IUPAC_NAME>
4-[(4-methylpiperazin-1-yl)methyl]-N-[4-methyl-3-[(4-pyridin-3-yl-1,3-thiazol-2-yl)amino]phenyl]benzamide

> <PUBCHEM_IUPAC_SYSTEMATIC_NAME>
4-[(4-methylpiperazin-1-yl)methyl]-N-[4-methyl-3-[(4-pyridin-3-yl-1,3-thiazol-2-yl)amino]phenyl]benzamide

> <PUBCHEM_IUPAC_TRADITIONAL_NAME>
4-[(4-methylpiperazino)methyl]-N-[4-methyl-3-[[4-(3-pyridyl)thiazol-2-yl]amino]phenyl]benzamide

> <PUBCHEM_IUPAC_INCHI>
InChI=1S/C28H30N6OS/c1-20-5-10-24(16-25(20)31-28-32-26(19-36-28)23-4-3-11-29-17-23)30-27(35)22-8-6-21(7-9-22)18-34-14-12-33(2)13-15-34/h3-11,16-17,19H,12-15,18H2,1-2H3,(H,30,35)(H,31,32)

> <PUBCHEM_IUPAC_INCHIKEY>
WJEOLQLKVOPQFV-UHFFFAOYSA-N

> <PUBCHEM_XLOGP3_AA>
4.3

> <PUBCHEM_EXACT_MASS>
498.22018078

> <PUBCHEM_MOLECULAR_FORMULA>
C28H30N6OS

> <PUBCHEM_MOLECULAR_WEIGHT>
498.6

> <PUBCHEM_OPENEYE_CAN_SMILES>
CC1=C(C=C(C=C1)NC(=O)C2=CC=C(C=C2)CN3CCN(CC3)C)NC4=NC(=CS4)C5=CN=CC=C5

> <PUBCHEM_OPENEYE_ISO_SMILES>
CC1=C(C=C(C=C1)NC(=O)C2=CC=C(C=C2)CN3CCN(CC3)C)NC4=NC(=CS4)C5=CN=CC=C5

> <PUBCHEM_CACTVS_TPSA>
102

> <PUBCHEM_MONOISOTOPIC_WEIGHT>
498.22018078

> <PUBCHEM_TOTAL_CHARGE>
0

> <PUBCHEM_HEAVY_ATOM_COUNT>
36

> <PUBCHEM_ATOM_DEF_STEREO_COUNT>
0

> <PUBCHEM_ATOM_UDEF_STEREO_COUNT>
0

> <PUBCHEM_BOND_DEF_STEREO_COUNT>
0

> <PUBCHEM_BOND_UDEF_STEREO_COUNT>
0

> <PUBCHEM_ISOTOPIC_ATOM_COUNT>
0

> <PUBCHEM_COMPONENT_COUNT>
1

> <PUBCHEM_CACTVS_TAUTO_COUNT>
-1

> <PUBCHEM_COORDINATE_TYPE>
1
5
255

> <PUBCHEM_BONDANNOTATIONS>
1  29  8
1  31  8
15  16  8
15  17  8
16  18  8
17  19  8
18  20  8
19  20  8
22  24  8
22  26  8
23  24  8
23  25  8
25  27  8
26  27  8
30  31  8
32  33  8
32  34  8
33  35  8
35  36  8
7  29  8
7  30  8
8  34  8
8  36  8

$$$$
11349170
  -OEChem-11282412102D

 51 54  0     1  0  0  0  0  0999 V2000
    9.2993    1.8187    0.0000 O   0  0  0  0  0  0  0  0  0  0  0  0
    2.8660    2.7500    0.0000 O   0  0  0  0  0  0  0  0  0  0  0  0
    7.6995   -0.2885    0.0000 N   0  0  3  0  0  0  0  0  0  0  0  0
   10.6350    0.3301    0.0000 N   0  0  0  0  0  0  0  0  0  0  0  0
    5.4641   -2.7500    0.0000 N   0  0  0  0  0  0  0  0  0  0  0  0
    4.5981   -3.2500    0.0000 N   0  0  0  0  0  0  0  0  0  0  0  0
    4.5981   -0.2500    0.0000 N   0  0  0  0  0  0  0  0  0  0  0  0
    3.7320   -1.7500    0.0000 N   0  0  0  0  0  0  0  0  0  0  0  0
    9.6565    0.1239    0.0000 C   0  0  1  0  0  0  0  0  0  0  0  0
    8.9887    0.8682    0.0000 C   0  0  1  0  0  0  0  0  0  0  0  0
    9.3458   -0.8266    0.0000 C   0  0  0  0  0  0  0  0  0  0  0  0
    8.0102    0.6620    0.0000 C   0  0  0  0  0  0  0  0  0  0  0  0
    8.3673   -1.0328    0.0000 C   0  0  0  0  0  0  0  0  0  0  0  0
    6.7210   -0.4947    0.0000 C   0  0  0  0  0  0  0  0  0  0  0  0
    6.4103   -1.4453    0.0000 C   0  0  0  0  0  0  0  0  0  0  0  0
    5.4641   -1.7500    0.0000 C   0  0  0  0  0  0  0  0  0  0  0  0
    6.9939   -2.2500    0.0000 C   0  0  0  0  0  0  0  0  0  0  0  0
    6.4103   -3.0547    0.0000 C   0  0  0  0  0  0  0  0  0  0  0  0
    4.5981   -1.2500    0.0000 C   0  0  0  0  0  0  0  0  0  0  0  0
    3.7320   -2.7500    0.0000 C   0  0  0  0  0  0  0  0  0  0  0  0
    3.7320    0.2500    0.0000 C   0  0  0  0  0  0  0  0  0  0  0  0
    3.7320    1.2500    0.0000 C   0  0  0  0  0  0  0  0  0  0  0  0
    2.8660   -0.2500    0.0000 C   0  0  0  0  0  0  0  0  0  0  0  0
    2.8660    1.7500    0.0000 C   0  0  0  0  0  0  0  0  0  0  0  0
    2.0000    0.2500    0.0000 C   0  0  0  0  0  0  0  0  0  0  0  0
    2.0000    1.2500    0.0000 C   0  0  0  0  0  0  0  0  0  0  0  0
    2.0000    3.2500    0.0000 C   0  0  0  0  0  0  0  0  0  0  0  0
    9.8491    0.7132    0.0000 H   0  0  0  0  0  0  0  0  0  0  0  0
    8.5746    1.3297    0.0000 H   0  0  0  0  0  0  0  0  0  0  0  0
    9.3664   -1.4463    0.0000 H   0  0  0  0  0  0  0  0  0  0  0  0
    9.9597   -0.9140    0.0000 H   0  0  0  0  0  0  0  0  0  0  0  0
    7.9896    1.2816    0.0000 H   0  0  0  0  0  0  0  0  0  0  0  0
    7.3963    0.7493    0.0000 H   0  0  0  0  0  0  0  0  0  0  0  0
    7.8410   -1.3605    0.0000 H   0  0  0  0  0  0  0  0  0  0  0  0
    8.5986   -1.6081    0.0000 H   0  0  0  0  0  0  0  0  0  0  0  0
    6.7004    0.1249    0.0000 H   0  0  0  0  0  0  0  0  0  0  0  0
    6.1072   -0.4074    0.0000 H   0  0  0  0  0  0  0  0  0  0  0  0
   11.0491   -0.1313    0.0000 H   0  0  0  0  0  0  0  0  0  0  0  0
   10.8276    0.9194    0.0000 H   0  0  0  0  0  0  0  0  0  0  0  0
    8.8853    2.2802    0.0000 H   0  0  0  0  0  0  0  0  0  0  0  0
    7.6139   -2.2500    0.0000 H   0  0  0  0  0  0  0  0  0  0  0  0
    6.6029   -3.6440    0.0000 H   0  0  0  0  0  0  0  0  0  0  0  0
    5.1350    0.0600    0.0000 H   0  0  0  0  0  0  0  0  0  0  0  0
    3.1951   -3.0600    0.0000 H   0  0  0  0  0  0  0  0  0  0  0  0
    4.2690    1.5600    0.0000 H   0  0  0  0  0  0  0  0  0  0  0  0
    2.8660   -0.8700    0.0000 H   0  0  0  0  0  0  0  0  0  0  0  0
    1.4631   -0.0600    0.0000 H   0  0  0  0  0  0  0  0  0  0  0  0
    1.4631    1.5600    0.0000 H   0  0  0  0  0  0  0  0  0  0  0  0
    2.3100    3.7869    0.0000 H   0  0  0  0  0  0  0  0  0  0  0  0
    1.4631    3.5600    0.0000 H   0  0  0  0  0  0  0  0  0  0  0  0
    1.6900    2.7131    0.0000 H   0  0  0  0  0  0  0  0  0  0  0  0
 10  1  1  1  0  0  0
  1 40  1  0  0  0  0
  2 24  1  0  0  0  0
  2 27  1  0  0  0  0
  3 12  1  0  0  0  0
  3 13  1  0  0  0  0
  3 14  1  0  0  0  0
  9  4  1  6  0  0  0
  4 38  1  0  0  0  0
  4 39  1  0  0  0  0
  5  6  1  0  0  0  0
  5 16  1  0  0  0  0
  5 18  1  0  0  0  0
  6 20  2  0  0  0  0
  7 19  1  0  0  0  0
  7 21  1  0  0  0  0
  7 43  1  0  0  0  0
  8 19  2  0  0  0  0
  8 20  1  0  0  0  0
  9 10  1  0  0  0  0
  9 11  1  0  0  0  0
  9 28  1  0  0  0  0
 10 12  1  0  0  0  0
 10 29  1  0  0  0  0
 11 13  1  0  0  0  0
 11 30  1  0  0  0  0
 11 31  1  0  0  0  0
 12 32  1  0  0  0  0
 12 33  1  0  0  0  0
 13 34  1  0  0  0  0
 13 35  1  0  0  0  0
 14 15  1  0  0  0  0
 14 36  1  0  0  0  0
 14 37  1  0  0  0  0
 15 16  2  0  0  0  0
 15 17  1  0  0  0  0
 16 19  1  0  0  0  0
 17 18  2  0  0  0  0
 17 41  1  0  0  0  0
 18 42  1  0  0  0  0
 20 44  1  0  0  0  0
 21 22  2  0  0  0  0
 21 23  1  0  0  0  0
 22 24  1  0  0  0  0
 22 45  1  0  0  0  0
 23 25  2  0  0  0  0
 23 46  1  0  0  0  0
 24 26  2  0  0  0  0
 25 26  1  0  0  0  0
 25 47  1  0  0  0  0
 26 48  1  0  0  0  0
 27 49  1  0  0  0  0
 27 50  1  0  0  0  0
 27 51  1  0  0  0  0
M  END
> <PUBCHEM_COMPOUND_CID>
11349170

> <PUBCHEM_COMPOUND_CANONICALIZED>
1

> <PUBCHEM_CACTVS_COMPLEXITY>
483

> <PUBCHEM_CACTVS_HBOND_ACCEPTOR>
7

> <PUBCHEM_CACTVS_HBOND_DONOR>
3

> <PUBCHEM_CACTVS_ROTATABLE_BOND>
5

> <PUBCHEM_CACTVS_SUBSKEYS>
AAADceB7sAAAAAAAAAAAAAAAAAAAAWAAAAA8WIAAAAAAAFgB8AAAHgAYCAAADDzhngY/9rfIFgCiAzZnZACSjC8xsqAd2KA+fJiOfuLE+ZuU8Chu2BvY6CewUAMKAAAAAgAAAAAAAAAEAAAAAAAAAAAAAA==

> <PUBCHEM_IUPAC_OPENEYE_NAME>
(3R,4R)-4-amino-1-[[4-(3-methoxyanilino)pyrrolo[2,1-f][1,2,4]triazin-5-yl]methyl]piperidin-3-ol

> <PUBCHEM_IUPAC_CAS_NAME>
(3R,4R)-4-amino-1-[[4-(3-methoxyanilino)-5-pyrrolo[2,1-f][1,2,4]triazinyl]methyl]-3-piperidinol

> <PUBCHEM_IUPAC_NAME_MARKUP>
(3<I>R</I>,4<I>R</I>)-4-amino-1-[[4-(3-methoxyanilino)pyrrolo[2,1-f][1,2,4]triazin-5-yl]methyl]piperidin-3-ol

> <PUBCHEM_IUPAC_NAME>
(3R,4R)-4-amino-1-[[4-(3-methoxyanilino)pyrrolo[2,1-f][1,2,4]triazin-5-yl]methyl]piperidin-3-ol

> <PUBCHEM_IUPAC_SYSTEMATIC_NAME>
(3R,4R)-4-azanyl-1-[[4-[(3-methoxyphenyl)amino]pyrrolo[2,1-f][1,2,4]triazin-5-yl]methyl]piperidin-3-ol

> <PUBCHEM_IUPAC_TRADITIONAL_NAME>
(3R,4R)-4-amino-1-[[4-(m-anisidino)pyrrolo[2,1-f][1,2,4]triazin-5-yl]methyl]piperidin-3-ol

> <PUBCHEM_IUPAC_INCHI>
InChI=1S/C19H24N6O2/c1-27-15-4-2-3-14(9-15)23-19-18-13(5-8-25(18)22-12-21-19)10-24-7-6-16(20)17(26)11-24/h2-5,8-9,12,16-17,26H,6-7,10-11,20H2,1H3,(H,21,22,23)/t16-,17-/m1/s1

> <PUBCHEM_IUPAC_INCHIKEY>
CSGQVNMSRKWUSH-IAGOWNOFSA-N

> <PUBCHEM_XLOGP3_AA>
0.7

> <PUBCHEM_EXACT_MASS>
368.19607403

> <PUBCHEM_MOLECULAR_FORMULA>
C19H24N6O2

> <PUBCHEM_MOLECULAR_WEIGHT>
368.4

> <PUBCHEM_OPENEYE_CAN_SMILES>
COC1=CC=CC(=C1)NC2=NC=NN3C2=C(C=C3)CN4CCC(C(C4)O)N

> <PUBCHEM_OPENEYE_ISO_SMILES>
COC1=CC=CC(=C1)NC2=NC=NN3C2=C(C=C3)CN4CC[C@H]([C@@H](C4)O)N

> <PUBCHEM_CACTVS_TPSA>
101

> <PUBCHEM_MONOISOTOPIC_WEIGHT>
368.19607403

> <PUBCHEM_TOTAL_CHARGE>
0

> <PUBCHEM_HEAVY_ATOM_COUNT>
27

> <PUBCHEM_ATOM_DEF_STEREO_COUNT>
2

> <PUBCHEM_ATOM_UDEF_STEREO_COUNT>
0

> <PUBCHEM_BOND_DEF_STEREO_COUNT>
0

> <PUBCHEM_BOND_UDEF_STEREO_COUNT>
0

> <PUBCHEM_ISOTOPIC_ATOM_COUNT>
0

> <PUBCHEM_COMPONENT_COUNT>
1

> <PUBCHEM_CACTVS_TAUTO_COUNT>
-1

> <PUBCHEM_COORDINATE_TYPE>
1
5
255

> <PUBCHEM_BONDANNOTATIONS>
10  1  5
15  16  8
15  17  8
16  19  8
17  18  8
21  22  8
21  23  8
22  24  8
23  25  8
24  26  8
25  26  8
9  4  6
5  16  8
5  18  8
5  6  8
6  20  8
8  19  8
8  20  8

$$$$
16058702
  -OEChem-11282412102D

 55 59  0     0  0  0  0  0  0999 V2000
    5.3783    0.0000    0.0000 Cl  0  0  0  0  0  0  0  0  0  0  0  0
    5.4720    9.6356    0.0000 S   0  0  0  0  0  0  0  0  0  0  0  0
    3.1333    5.4375    0.0000 O   0  0  0  0  0  0  0  0  0  0  0  0
   10.1621   12.3323    0.0000 O   0  0  0  0  0  0  0  0  0  0  0  0
   11.2528   11.1488    0.0000 O   0  0  0  0  0  0  0  0  0  0  0  0
    5.2557    6.0365    0.0000 N   0  0  0  0  0  0  0  0  0  0  0  0
    5.8517    7.9457    0.0000 N   0  0  0  0  0  0  0  0  0  0  0  0
    7.1254    9.1194    0.0000 N   0  0  0  0  0  0  0  0  0  0  0  0
    5.6607    4.3133    0.0000 N   0  0  0  0  0  0  0  0  0  0  0  0
    4.3183    3.1139    0.0000 N   0  0  0  0  0  0  0  0  0  0  0  0
    6.2314    6.2558    0.0000 C   0  0  0  0  0  0  0  0  0  0  0  0
    4.5781    6.7719    0.0000 C   0  0  0  0  0  0  0  0  0  0  0  0
    6.5294    7.2103    0.0000 C   0  0  0  0  0  0  0  0  0  0  0  0
    4.8760    7.7265    0.0000 C   0  0  0  0  0  0  0  0  0  0  0  0
    4.9577    5.0820    0.0000 C   0  0  0  0  0  0  0  0  0  0  0  0
    6.1497    8.9002    0.0000 C   0  0  0  0  0  0  0  0  0  0  0  0
    3.9423    4.8497    0.0000 C   0  0  0  0  0  0  0  0  0  0  0  0
    3.6333    3.8987    0.0000 C   0  0  0  0  0  0  0  0  0  0  0  0
    2.6333    3.8987    0.0000 C   0  0  0  0  0  0  0  0  0  0  0  0
    2.3243    4.8497    0.0000 C   0  0  0  0  0  0  0  0  0  0  0  0
    7.4234   10.0740    0.0000 C   0  0  0  0  0  0  0  0  0  0  0  0
    8.3991   10.2932    0.0000 C   0  0  0  0  0  0  0  0  0  0  0  0
    5.3388    3.3226    0.0000 C   0  0  0  0  0  0  0  0  0  0  0  0
    1.9483    3.1139    0.0000 C   0  0  0  0  0  0  0  0  0  0  0  0
    1.3089    5.0820    0.0000 C   0  0  0  0  0  0  0  0  0  0  0  0
    8.6971   11.2478    0.0000 C   0  0  0  0  0  0  0  0  0  0  0  0
    9.0768    9.5579    0.0000 C   0  0  0  0  0  0  0  0  0  0  0  0
    0.9278    3.3226    0.0000 C   0  0  0  0  0  0  0  0  0  0  0  0
    9.6728   11.4670    0.0000 C   0  0  0  0  0  0  0  0  0  0  0  0
    0.6060    4.3133    0.0000 C   0  0  0  0  0  0  0  0  0  0  0  0
   10.3504   10.7316    0.0000 C   0  0  0  0  0  0  0  0  0  0  0  0
   10.0524    9.7771    0.0000 C   0  0  0  0  0  0  0  0  0  0  0  0
   11.1366   12.1360    0.0000 C   0  0  0  0  0  0  0  0  0  0  0  0
    6.2602    5.6364    0.0000 H   0  0  0  0  0  0  0  0  0  0  0  0
    6.8463    6.1766    0.0000 H   0  0  0  0  0  0  0  0  0  0  0  0
    4.0273    7.0566    0.0000 H   0  0  0  0  0  0  0  0  0  0  0  0
    4.2020    6.2790    0.0000 H   0  0  0  0  0  0  0  0  0  0  0  0
    7.0802    6.9256    0.0000 H   0  0  0  0  0  0  0  0  0  0  0  0
    6.9054    7.7033    0.0000 H   0  0  0  0  0  0  0  0  0  0  0  0
    4.8472    8.3458    0.0000 H   0  0  0  0  0  0  0  0  0  0  0  0
    4.2611    7.8056    0.0000 H   0  0  0  0  0  0  0  0  0  0  0  0
    7.5456    8.6635    0.0000 H   0  0  0  0  0  0  0  0  0  0  0  0
    7.3946   10.6933    0.0000 H   0  0  0  0  0  0  0  0  0  0  0  0
    6.8085   10.1532    0.0000 H   0  0  0  0  0  0  0  0  0  0  0  0
    5.7519    2.8603    0.0000 H   0  0  0  0  0  0  0  0  0  0  0  0
    2.1467    2.5265    0.0000 H   0  0  0  0  0  0  0  0  0  0  0  0
    1.1241    5.6738    0.0000 H   0  0  0  0  0  0  0  0  0  0  0  0
    8.2769   11.7037    0.0000 H   0  0  0  0  0  0  0  0  0  0  0  0
    8.8920    8.9660    0.0000 H   0  0  0  0  0  0  0  0  0  0  0  0
    0.5148    2.8603    0.0000 H   0  0  0  0  0  0  0  0  0  0  0  0
    0.0000    4.4445    0.0000 H   0  0  0  0  0  0  0  0  0  0  0  0
   10.4726    9.3212    0.0000 H   0  0  0  0  0  0  0  0  0  0  0  0
   11.7565   12.1434    0.0000 H   0  0  0  0  0  0  0  0  0  0  0  0
   11.1944   12.7533    0.0000 H   0  0  0  0  0  0  0  0  0  0  0  0
    6.3783    0.0000    0.0000 H   0  0  0  0  0  0  0  0  0  0  0  0
  1 55  1  0  0  0  0
  2 16  2  0  0  0  0
  3 17  1  0  0  0  0
  3 20  1  0  0  0  0
  4 29  1  0  0  0  0
  4 33  1  0  0  0  0
  5 31  1  0  0  0  0
  5 33  1  0  0  0  0
  6 11  1  0  0  0  0
  6 12  1  0  0  0  0
  6 15  1  0  0  0  0
  7 13  1  0  0  0  0
  7 14  1  0  0  0  0
  7 16  1  0  0  0  0
  8 16  1  0  0  0  0
  8 21  1  0  0  0  0
  8 42  1  0  0  0  0
  9 15  2  0  0  0  0
  9 23  1  0  0  0  0
 10 18  1  0  0  0  0
 10 23  2  0  0  0  0
 11 13  1  0  0  0  0
 11 34  1  0  0  0  0
 11 35  1  0  0  0  0
 12 14  1  0  0  0  0
 12 36  1  0  0  0  0
 12 37  1  0  0  0  0
 13 38  1  0  0  0  0
 13 39  1  0  0  0  0
 14 40  1  0  0  0  0
 14 41  1  0  0  0  0
 15 17  1  0  0  0  0
 17 18  2  0  0  0  0
 18 19  1  0  0  0  0
 19 20  1  0  0  0  0
 19 24  2  0  0  0  0
 20 25  2  0  0  0  0
 21 22  1  0  0  0  0
 21 43  1  0  0  0  0
 21 44  1  0  0  0  0
 22 26  2  0  0  0  0
 22 27  1  0  0  0  0
 23 45  1  0  0  0  0
 24 28  1  0  0  0  0
 24 46  1  0  0  0  0
 25 30  1  0  0  0  0
 25 47  1  0  0  0  0
 26 29  1  0  0  0  0
 26 48  1  0  0  0  0
 27 32  2  0  0  0  0
 27 49  1  0  0  0  0
 28 30  2  0  0  0  0
 28 50  1  0  0  0  0
 29 31  2  0  0  0  0
 30 51  1  0  0  0  0
 31 32  1  0  0  0  0
 32 52  1  0  0  0  0
 33 53  1  0  0  0  0
 33 54  1  0  0  0  0
M  END
> <PUBCHEM_COMPOUND_CID>
16058702

> <PUBCHEM_COMPOUND_CANONICALIZED>
1

> <PUBCHEM_CACTVS_COMPLEXITY>
678

> <PUBCHEM_CACTVS_HBOND_ACCEPTOR>
7

> <PUBCHEM_CACTVS_HBOND_DONOR>
2

> <PUBCHEM_CACTVS_ROTATABLE_BOND>
3

> <PUBCHEM_CACTVS_SUBSKEYS>
AAADceB7sABEAAAAAAAAAAAAAAAAASJAAAA8eIEAAAAAAFgB/gAAHgQQAAAADAzBngc1/vfIFECsA6ZzZASCiCk3YKkJ2KGvzNifbrrE/fu3ParuwBve6ee42bKOIAABAAAIQABAAAIAABCAAAAAAAAAAA==

> <PUBCHEM_IUPAC_OPENEYE_NAME>
N-(1,3-benzodioxol-5-ylmethyl)-4-(benzofuro[3,2-d]pyrimidin-4-yl)piperazine-1-carbothioamide;hydrochloride

> <PUBCHEM_IUPAC_CAS_NAME>
N-(1,3-benzodioxol-5-ylmethyl)-4-(4-benzofuro[3,2-d]pyrimidinyl)-1-piperazinecarbothioamide;hydrochloride

> <PUBCHEM_IUPAC_NAME_MARKUP>
<I>N</I>-(1,3-benzodioxol-5-ylmethyl)-4-([1]benzofuro[3,2-d]pyrimidin-4-yl)piperazine-1-carbothioamide;hydrochloride

> <PUBCHEM_IUPAC_NAME>
N-(1,3-benzodioxol-5-ylmethyl)-4-([1]benzofuro[3,2-d]pyrimidin-4-yl)piperazine-1-carbothioamide;hydrochloride

> <PUBCHEM_IUPAC_SYSTEMATIC_NAME>
N-(1,3-benzodioxol-5-ylmethyl)-4-([1]benzofuro[3,2-d]pyrimidin-4-yl)piperazine-1-carbothioamide;hydrochloride

> <PUBCHEM_IUPAC_TRADITIONAL_NAME>
4-(benzofuro[3,2-d]pyrimidin-4-yl)-N-piperonyl-piperazine-1-carbothioamide;hydrochloride

> <PUBCHEM_IUPAC_INCHI>
InChI=1S/C23H21N5O3S.ClH/c32-23(24-12-15-5-6-18-19(11-15)30-14-29-18)28-9-7-27(8-10-28)22-21-20(25-13-26-22)16-3-1-2-4-17(16)31-21;/h1-6,11,13H,7-10,12,14H2,(H,24,32);1H

> <PUBCHEM_IUPAC_INCHIKEY>
IKQFRXPMBGQJGE-UHFFFAOYSA-N

> <PUBCHEM_EXACT_MASS>
483.1131884

> <PUBCHEM_MOLECULAR_FORMULA>
C23H22ClN5O3S

> <PUBCHEM_MOLECULAR_WEIGHT>
484.0

> <PUBCHEM_OPENEYE_CAN_SMILES>
C1CN(CCN1C2=NC=NC3=C2OC4=CC=CC=C43)C(=S)NCC5=CC6=C(C=C5)OCO6.Cl

> <PUBCHEM_OPENEYE_ISO_SMILES>
C1CN(CCN1C2=NC=NC3=C2OC4=CC=CC=C43)C(=S)NCC5=CC6=C(C=C5)OCO6.Cl

> <PUBCHEM_CACTVS_TPSA>
108

> <PUBCHEM_MONOISOTOPIC_WEIGHT>
483.1131884

> <PUBCHEM_TOTAL_CHARGE>
0

> <PUBCHEM_HEAVY_ATOM_COUNT>
33

> <PUBCHEM_ATOM_DEF_STEREO_COUNT>
0

> <PUBCHEM_ATOM_UDEF_STEREO_COUNT>
0

> <PUBCHEM_BOND_DEF_STEREO_COUNT>
0

> <PUBCHEM_BOND_UDEF_STEREO_COUNT>
0

> <PUBCHEM_ISOTOPIC_ATOM_COUNT>
0

> <PUBCHEM_COMPONENT_COUNT>
2

> <PUBCHEM_CACTVS_TAUTO_COUNT>
-1

> <PUBCHEM_COORDINATE_TYPE>
1
5
255

> <PUBCHEM_BONDANNOTATIONS>
10  18  8
10  23  8
15  17  8
17  18  8
18  19  8
19  20  8
19  24  8
20  25  8
22  26  8
22  27  8
24  28  8
25  30  8
26  29  8
27  32  8
28  30  8
29  31  8
3  17  8
3  20  8
31  32  8
9  15  8
9  23  8

$$$$
16118986
  -OEChem-11282412102D

 71 74  0     1  0  0  0  0  0999 V2000
    3.1350    6.8660    0.0000 S   0  0  0  0  0  0  0  0  0  0  0  0
    5.8635   14.1050    0.0000 S   0  0  0  0  0  0  0  0  0  0  0  0
    2.2690    0.3660    0.0000 F   0  0  0  0  0  0  0  0  0  0  0  0
    3.6350    0.0000    0.0000 F   0  0  0  0  0  0  0  0  0  0  0  0
    2.6350    1.7320    0.0000 F   0  0  0  0  0  0  0  0  0  0  0  0
   11.7270    1.8660    0.0000 O   0  0  0  0  0  0  0  0  0  0  0  0
    2.1350    6.8660    0.0000 O   0  0  0  0  0  0  0  0  0  0  0  0
    4.1350    6.8660    0.0000 O   0  0  0  0  0  0  0  0  0  0  0  0
    5.8635   15.1050    0.0000 O   0  0  0  0  0  0  0  0  0  0  0  0
    6.8635   14.1050    0.0000 O   0  0  0  0  0  0  0  0  0  0  0  0
    4.8635   14.1050    0.0000 O   0  0  0  0  0  0  0  0  0  0  0  0
   10.1434    1.0613    0.0000 N   0  0  0  0  0  0  0  0  0  0  0  0
    3.1350    5.8660    0.0000 N   0  0  3  0  0  0  0  0  0  0  0  0
    6.5991    2.8660    0.0000 N   0  0  0  0  0  0  0  0  0  0  0  0
    3.1350    2.8660    0.0000 N   0  0  0  0  0  0  0  0  0  0  0  0
    4.8671    2.8660    0.0000 N   0  0  0  0  0  0  0  0  0  0  0  0
    1.4030    5.8660    0.0000 N   0  0  0  0  0  0  0  0  0  0  0  0
    5.7331    1.3660    0.0000 N   0  0  0  0  0  0  0  0  0  0  0  0
    9.1972    2.3660    0.0000 C   0  0  0  0  0  0  0  0  0  0  0  0
   10.1434    2.6708    0.0000 C   0  0  0  0  0  0  0  0  0  0  0  0
    9.1972    1.3660    0.0000 C   0  0  0  0  0  0  0  0  0  0  0  0
    8.3312    2.8660    0.0000 C   0  0  0  0  0  0  0  0  0  0  0  0
   10.7270    1.8660    0.0000 C   0  0  0  0  0  0  0  0  0  0  0  0
    7.4651    2.3660    0.0000 C   0  0  0  0  0  0  0  0  0  0  0  0
    8.3312    0.8660    0.0000 C   0  0  0  0  0  0  0  0  0  0  0  0
    2.2690    4.3660    0.0000 C   0  0  0  0  0  0  0  0  0  0  0  0
    3.1350    3.8660    0.0000 C   0  0  0  0  0  0  0  0  0  0  0  0
    7.4651    1.3660    0.0000 C   0  0  0  0  0  0  0  0  0  0  0  0
    2.2690    5.3660    0.0000 C   0  0  0  0  0  0  0  0  0  0  0  0
    4.0010    2.3660    0.0000 C   0  0  0  0  0  0  0  0  0  0  0  0
    5.7331    2.3660    0.0000 C   0  0  0  0  0  0  0  0  0  0  0  0
    1.4030    3.8660    0.0000 C   0  0  0  0  0  0  0  0  0  0  0  0
    4.0010    1.3660    0.0000 C   0  0  0  0  0  0  0  0  0  0  0  0
    4.0010    5.3660    0.0000 C   0  0  0  0  0  0  0  0  0  0  0  0
    3.1350    7.8660    0.0000 C   0  0  0  0  0  0  0  0  0  0  0  0
    0.5369    4.3660    0.0000 C   0  0  0  0  0  0  0  0  0  0  0  0
    4.8671    0.8660    0.0000 C   0  0  0  0  0  0  0  0  0  0  0  0
    0.5369    5.3660    0.0000 C   0  0  0  0  0  0  0  0  0  0  0  0
    3.1350    0.8660    0.0000 C   0  0  0  0  0  0  0  0  0  0  0  0
    5.8635   13.1050    0.0000 C   0  0  0  0  0  0  0  0  0  0  0  0
    6.7295   12.6050    0.0000 C   0  0  0  0  0  0  0  0  0  0  0  0
    4.9975   12.6050    0.0000 C   0  0  0  0  0  0  0  0  0  0  0  0
    6.7295   11.6050    0.0000 C   0  0  0  0  0  0  0  0  0  0  0  0
    4.9975   11.6050    0.0000 C   0  0  0  0  0  0  0  0  0  0  0  0
    5.8635   11.1050    0.0000 C   0  0  0  0  0  0  0  0  0  0  0  0
   10.6808    2.9800    0.0000 H   0  0  0  0  0  0  0  0  0  0  0  0
    9.8924    3.2377    0.0000 H   0  0  0  0  0  0  0  0  0  0  0  0
    8.3312    3.4860    0.0000 H   0  0  0  0  0  0  0  0  0  0  0  0
   10.3360    0.4720    0.0000 H   0  0  0  0  0  0  0  0  0  0  0  0
    8.3312    0.2460    0.0000 H   0  0  0  0  0  0  0  0  0  0  0  0
    3.7456    3.7584    0.0000 H   0  0  0  0  0  0  0  0  0  0  0  0
    3.3471    4.4486    0.0000 H   0  0  0  0  0  0  0  0  0  0  0  0
    6.9282    1.0560    0.0000 H   0  0  0  0  0  0  0  0  0  0  0  0
    6.5991    3.4860    0.0000 H   0  0  0  0  0  0  0  0  0  0  0  0
    2.5981    2.5560    0.0000 H   0  0  0  0  0  0  0  0  0  0  0  0
    1.4030    3.2460    0.0000 H   0  0  0  0  0  0  0  0  0  0  0  0
    3.6910    4.8291    0.0000 H   0  0  0  0  0  0  0  0  0  0  0  0
    4.5380    5.0560    0.0000 H   0  0  0  0  0  0  0  0  0  0  0  0
    4.3110    5.9030    0.0000 H   0  0  0  0  0  0  0  0  0  0  0  0
    3.7550    7.8660    0.0000 H   0  0  0  0  0  0  0  0  0  0  0  0
    3.1350    8.4860    0.0000 H   0  0  0  0  0  0  0  0  0  0  0  0
    2.5150    7.8660    0.0000 H   0  0  0  0  0  0  0  0  0  0  0  0
    0.0000    4.0560    0.0000 H   0  0  0  0  0  0  0  0  0  0  0  0
    4.8671    0.2460    0.0000 H   0  0  0  0  0  0  0  0  0  0  0  0
    0.0000    5.6760    0.0000 H   0  0  0  0  0  0  0  0  0  0  0  0
    7.2665   12.9150    0.0000 H   0  0  0  0  0  0  0  0  0  0  0  0
    4.4605   12.9150    0.0000 H   0  0  0  0  0  0  0  0  0  0  0  0
    7.2665   11.2950    0.0000 H   0  0  0  0  0  0  0  0  0  0  0  0
    4.4605   11.2950    0.0000 H   0  0  0  0  0  0  0  0  0  0  0  0
    5.8635   10.4850    0.0000 H   0  0  0  0  0  0  0  0  0  0  0  0
    6.4004   15.4150    0.0000 H   0  0  0  0  0  0  0  0  0  0  0  0
  1  7  2  0  0  0  0
  1  8  2  0  0  0  0
  1 13  1  0  0  0  0
  1 35  1  0  0  0  0
  2  9  1  0  0  0  0
  2 10  2  0  0  0  0
  2 11  2  0  0  0  0
  2 40  1  0  0  0  0
  3 39  1  0  0  0  0
  4 39  1  0  0  0  0
  5 39  1  0  0  0  0
  6 23  2  0  0  0  0
  9 71  1  0  0  0  0
 12 21  1  0  0  0  0
 12 23  1  0  0  0  0
 12 49  1  0  0  0  0
 13 29  1  0  0  0  0
 13 34  1  0  0  0  0
 14 24  1  0  0  0  0
 14 31  1  0  0  0  0
 14 54  1  0  0  0  0
 15 27  1  0  0  0  0
 15 30  1  0  0  0  0
 15 55  1  0  0  0  0
 16 30  2  0  0  0  0
 16 31  1  0  0  0  0
 17 29  1  0  0  0  0
 17 38  2  0  0  0  0
 18 31  2  0  0  0  0
 18 37  1  0  0  0  0
 19 20  1  0  0  0  0
 19 21  2  0  0  0  0
 19 22  1  0  0  0  0
 20 23  1  0  0  0  0
 20 46  1  0  0  0  0
 20 47  1  0  0  0  0
 21 25  1  0  0  0  0
 22 24  2  0  0  0  0
 22 48  1  0  0  0  0
 24 28  1  0  0  0  0
 25 28  2  0  0  0  0
 25 50  1  0  0  0  0
 26 27  1  0  0  0  0
 26 29  2  0  0  0  0
 26 32  1  0  0  0  0
 27 51  1  0  0  0  0
 27 52  1  0  0  0  0
 28 53  1  0  0  0  0
 30 33  1  0  0  0  0
 32 36  2  0  0  0  0
 32 56  1  0  0  0  0
 33 37  2  0  0  0  0
 33 39  1  0  0  0  0
 34 57  1  0  0  0  0
 34 58  1  0  0  0  0
 34 59  1  0  0  0  0
 35 60  1  0  0  0  0
 35 61  1  0  0  0  0
 35 62  1  0  0  0  0
 36 38  1  0  0  0  0
 36 63  1  0  0  0  0
 37 64  1  0  0  0  0
 38 65  1  0  0  0  0
 40 41  2  0  0  0  0
 40 42  1  0  0  0  0
 41 43  1  0  0  0  0
 41 66  1  0  0  0  0
 42 44  2  0  0  0  0
 42 67  1  0  0  0  0
 43 45  2  0  0  0  0
 43 68  1  0  0  0  0
 44 45  1  0  0  0  0
 44 69  1  0  0  0  0
 45 70  1  0  0  0  0
M  END
> <PUBCHEM_COMPOUND_CID>
16118986

> <PUBCHEM_COMPOUND_CANONICALIZED>
1

> <PUBCHEM_CACTVS_COMPLEXITY>
1040

> <PUBCHEM_CACTVS_HBOND_ACCEPTOR>
15

> <PUBCHEM_CACTVS_HBOND_DONOR>
4

> <PUBCHEM_CACTVS_ROTATABLE_BOND>
8

> <PUBCHEM_CACTVS_SUBSKEYS>
AAADceB7uYBgAAAAAAAAAAAAAAAAAWAAAAA8eIEAAAAAAFgB9AAAHwQQSAAADAjB2hS/8ZbIEIKoAjd3dHDCgGkxAqAJ2Lk4ZJiIKPLA3dGEJAholALIyCcciYCeAACAQAACAAAAAQCAAAQAAAAAAAAAAA==

> <PUBCHEM_IUPAC_OPENEYE_NAME>
benzenesulfonic acid;N-methyl-N-[3-[[[2-[(2-oxoindolin-5-yl)amino]-5-(trifluoromethyl)pyrimidin-4-yl]amino]methyl]-2-pyridyl]methanesulfonamide

> <PUBCHEM_IUPAC_CAS_NAME>
benzenesulfonic acid;N-methyl-N-[3-[[[2-[(2-oxo-1,3-dihydroindol-5-yl)amino]-5-(trifluoromethyl)-4-pyrimidinyl]amino]methyl]-2-pyridinyl]methanesulfonamide

> <PUBCHEM_IUPAC_NAME_MARKUP>
benzenesulfonic acid;<I>N</I>-methyl-<I>N</I>-[3-[[[2-[(2-oxo-1,3-dihydroindol-5-yl)amino]-5-(trifluoromethyl)pyrimidin-4-yl]amino]methyl]pyridin-2-yl]methanesulfonamide

> <PUBCHEM_IUPAC_NAME>
benzenesulfonic acid;N-methyl-N-[3-[[[2-[(2-oxo-1,3-dihydroindol-5-yl)amino]-5-(trifluoromethyl)pyrimidin-4-yl]amino]methyl]pyridin-2-yl]methanesulfonamide

> <PUBCHEM_IUPAC_SYSTEMATIC_NAME>
benzenesulfonic acid;N-methyl-N-[3-[[[2-[(2-oxidanylidene-1,3-dihydroindol-5-yl)amino]-5-(trifluoromethyl)pyrimidin-4-yl]amino]methyl]pyridin-2-yl]methanesulfonamide

> <PUBCHEM_IUPAC_TRADITIONAL_NAME>
besylic acid;N-[3-[[[2-[(2-ketoindolin-5-yl)amino]-5-(trifluoromethyl)pyrimidin-4-yl]amino]methyl]-2-pyridyl]-N-methyl-methanesulfonamide

> <PUBCHEM_IUPAC_INCHI>
InChI=1S/C21H20F3N7O3S.C6H6O3S/c1-31(35(2,33)34)19-12(4-3-7-25-19)10-26-18-15(21(22,23)24)11-27-20(30-18)28-14-5-6-16-13(8-14)9-17(32)29-16;7-10(8,9)6-4-2-1-3-5-6/h3-8,11H,9-10H2,1-2H3,(H,29,32)(H2,26,27,28,30);1-5H,(H,7,8,9)

> <PUBCHEM_IUPAC_INCHIKEY>
LKLWTLXTOVZFAE-UHFFFAOYSA-N

> <PUBCHEM_EXACT_MASS>
665.13380841

> <PUBCHEM_MOLECULAR_FORMULA>
C27H26F3N7O6S2

> <PUBCHEM_MOLECULAR_WEIGHT>
665.7

> <PUBCHEM_OPENEYE_CAN_SMILES>
CN(C1=C(C=CC=N1)CNC2=NC(=NC=C2C(F)(F)F)NC3=CC4=C(C=C3)NC(=O)C4)S(=O)(=O)C.C1=CC=C(C=C1)S(=O)(=O)O

> <PUBCHEM_OPENEYE_ISO_SMILES>
CN(C1=C(C=CC=N1)CNC2=NC(=NC=C2C(F)(F)F)NC3=CC4=C(C=C3)NC(=O)C4)S(=O)(=O)C.C1=CC=C(C=C1)S(=O)(=O)O

> <PUBCHEM_CACTVS_TPSA>
200

> <PUBCHEM_MONOISOTOPIC_WEIGHT>
665.13380841

> <PUBCHEM_TOTAL_CHARGE>
0

> <PUBCHEM_HEAVY_ATOM_COUNT>
45

> <PUBCHEM_ATOM_DEF_STEREO_COUNT>
0

> <PUBCHEM_ATOM_UDEF_STEREO_COUNT>
0

> <PUBCHEM_BOND_DEF_STEREO_COUNT>
0

> <PUBCHEM_BOND_UDEF_STEREO_COUNT>
0

> <PUBCHEM_ISOTOPIC_ATOM_COUNT>
0

> <PUBCHEM_COMPONENT_COUNT>
2

> <PUBCHEM_CACTVS_TAUTO_COUNT>
-1

> <PUBCHEM_COORDINATE_TYPE>
1
5
255

> <PUBCHEM_BONDANNOTATIONS>
16  30  8
16  31  8
17  29  8
17  38  8
18  31  8
18  37  8
19  21  8
19  22  8
21  25  8
22  24  8
24  28  8
25  28  8
26  29  8
26  32  8
30  33  8
32  36  8
33  37  8
36  38  8
40  41  8
40  42  8
41  43  8
42  44  8
43  45  8
44  45  8

$$$$
25117126
  -OEChem-11282412102D

 56 58  0     1  0  0  0  0  0999 V2000
    4.5981   -3.0000    0.0000 S   0  0  0  0  0  0  0  0  0  0  0  0
    3.7320    3.5000    0.0000 F   0  0  0  0  0  0  0  0  0  0  0  0
    5.0981    3.8660    0.0000 F   0  0  0  0  0  0  0  0  0  0  0  0
    4.0981    2.1340    0.0000 F   0  0  0  0  0  0  0  0  0  0  0  0
    3.5981   -3.0000    0.0000 O   0  0  0  0  0  0  0  0  0  0  0  0
    5.5981   -3.0000    0.0000 O   0  0  0  0  0  0  0  0  0  0  0  0
   11.5263    4.0000    0.0000 O   0  0  0  0  0  0  0  0  0  0  0  0
    4.5981   -2.0000    0.0000 N   0  0  3  0  0  0  0  0  0  0  0  0
    4.5981    1.0000    0.0000 N   0  0  0  0  0  0  0  0  0  0  0  0
    2.8660   -2.0000    0.0000 N   0  0  0  0  0  0  0  0  0  0  0  0
    2.8660    0.0000    0.0000 N   0  0  0  0  0  0  0  0  0  0  0  0
    6.3301    1.0000    0.0000 N   0  0  0  0  0  0  0  0  0  0  0  0
    8.0622    1.0000    0.0000 N   0  0  0  0  0  0  0  0  0  0  0  0
    7.1962    2.5000    0.0000 N   0  0  0  0  0  0  0  0  0  0  0  0
   12.3923    2.5000    0.0000 N   0  0  0  0  0  0  0  0  0  0  0  0
    3.7320   -1.5000    0.0000 C   0  0  0  0  0  0  0  0  0  0  0  0
    4.5981    0.0000    0.0000 C   0  0  0  0  0  0  0  0  0  0  0  0
    3.7320   -0.5000    0.0000 C   0  0  0  0  0  0  0  0  0  0  0  0
    5.4641    1.5000    0.0000 C   0  0  0  0  0  0  0  0  0  0  0  0
    5.4641   -1.5000    0.0000 C   0  0  0  0  0  0  0  0  0  0  0  0
    5.4641    2.5000    0.0000 C   0  0  0  0  0  0  0  0  0  0  0  0
    4.5981   -4.0000    0.0000 C   0  0  0  0  0  0  0  0  0  0  0  0
    7.1962    1.5000    0.0000 C   0  0  0  0  0  0  0  0  0  0  0  0
    6.3301    3.0000    0.0000 C   0  0  0  0  0  0  0  0  0  0  0  0
    4.5981    3.0000    0.0000 C   0  0  0  0  0  0  0  0  0  0  0  0
    8.9282    1.5000    0.0000 C   0  0  0  0  0  0  0  0  0  0  0  0
    2.0000   -1.5000    0.0000 C   0  0  0  0  0  0  0  0  0  0  0  0
    2.0000   -0.5000    0.0000 C   0  0  0  0  0  0  0  0  0  0  0  0
    9.7942    1.0000    0.0000 C   0  0  0  0  0  0  0  0  0  0  0  0
    8.9282    2.5000    0.0000 C   0  0  0  0  0  0  0  0  0  0  0  0
   10.6603    2.5000    0.0000 C   0  0  0  0  0  0  0  0  0  0  0  0
   10.6603    1.5000    0.0000 C   0  0  0  0  0  0  0  0  0  0  0  0
    9.7942    3.0000    0.0000 C   0  0  0  0  0  0  0  0  0  0  0  0
   11.5263    3.0000    0.0000 C   0  0  0  0  0  0  0  0  0  0  0  0
   13.2583    3.0000    0.0000 C   0  0  0  0  0  0  0  0  0  0  0  0
    4.8101   -0.5826    0.0000 H   0  0  0  0  0  0  0  0  0  0  0  0
    5.2087    0.1077    0.0000 H   0  0  0  0  0  0  0  0  0  0  0  0
    4.0611    1.3100    0.0000 H   0  0  0  0  0  0  0  0  0  0  0  0
    5.7741   -2.0369    0.0000 H   0  0  0  0  0  0  0  0  0  0  0  0
    6.0010   -1.1900    0.0000 H   0  0  0  0  0  0  0  0  0  0  0  0
    5.1541   -0.9631    0.0000 H   0  0  0  0  0  0  0  0  0  0  0  0
    3.9781   -4.0000    0.0000 H   0  0  0  0  0  0  0  0  0  0  0  0
    4.5981   -4.6200    0.0000 H   0  0  0  0  0  0  0  0  0  0  0  0
    5.2181   -4.0000    0.0000 H   0  0  0  0  0  0  0  0  0  0  0  0
    6.3301    3.6200    0.0000 H   0  0  0  0  0  0  0  0  0  0  0  0
    1.4631   -1.8100    0.0000 H   0  0  0  0  0  0  0  0  0  0  0  0
    1.4631   -0.1900    0.0000 H   0  0  0  0  0  0  0  0  0  0  0  0
    8.0622    0.3800    0.0000 H   0  0  0  0  0  0  0  0  0  0  0  0
    9.7942    0.3800    0.0000 H   0  0  0  0  0  0  0  0  0  0  0  0
    8.3913    2.8100    0.0000 H   0  0  0  0  0  0  0  0  0  0  0  0
   11.1972    1.1900    0.0000 H   0  0  0  0  0  0  0  0  0  0  0  0
    9.7942    3.6200    0.0000 H   0  0  0  0  0  0  0  0  0  0  0  0
   12.3923    1.8800    0.0000 H   0  0  0  0  0  0  0  0  0  0  0  0
   13.5683    2.4631    0.0000 H   0  0  0  0  0  0  0  0  0  0  0  0
   13.7953    3.3100    0.0000 H   0  0  0  0  0  0  0  0  0  0  0  0
   12.9483    3.5369    0.0000 H   0  0  0  0  0  0  0  0  0  0  0  0
  1  5  2  0  0  0  0
  1  6  2  0  0  0  0
  1  8  1  0  0  0  0
  1 22  1  0  0  0  0
  2 25  1  0  0  0  0
  3 25  1  0  0  0  0
  4 25  1  0  0  0  0
  7 34  2  0  0  0  0
  8 16  1  0  0  0  0
  8 20  1  0  0  0  0
  9 17  1  0  0  0  0
  9 19  1  0  0  0  0
  9 38  1  0  0  0  0
 10 16  2  0  0  0  0
 10 27  1  0  0  0  0
 11 18  2  0  0  0  0
 11 28  1  0  0  0  0
 12 19  2  0  0  0  0
 12 23  1  0  0  0  0
 13 23  1  0  0  0  0
 13 26  1  0  0  0  0
 13 48  1  0  0  0  0
 14 23  2  0  0  0  0
 14 24  1  0  0  0  0
 15 34  1  0  0  0  0
 15 35  1  0  0  0  0
 15 53  1  0  0  0  0
 16 18  1  0  0  0  0
 17 18  1  0  0  0  0
 17 36  1  0  0  0  0
 17 37  1  0  0  0  0
 19 21  1  0  0  0  0
 20 39  1  0  0  0  0
 20 40  1  0  0  0  0
 20 41  1  0  0  0  0
 21 24  2  0  0  0  0
 21 25  1  0  0  0  0
 22 42  1  0  0  0  0
 22 43  1  0  0  0  0
 22 44  1  0  0  0  0
 24 45  1  0  0  0  0
 26 29  2  0  0  0  0
 26 30  1  0  0  0  0
 27 28  2  0  0  0  0
 27 46  1  0  0  0  0
 28 47  1  0  0  0  0
 29 32  1  0  0  0  0
 29 49  1  0  0  0  0
 30 33  2  0  0  0  0
 30 50  1  0  0  0  0
 31 32  2  0  0  0  0
 31 33  1  0  0  0  0
 31 34  1  0  0  0  0
 32 51  1  0  0  0  0
 33 52  1  0  0  0  0
 35 54  1  0  0  0  0
 35 55  1  0  0  0  0
 35 56  1  0  0  0  0
M  END
> <PUBCHEM_COMPOUND_CID>
25117126

> <PUBCHEM_COMPOUND_CANONICALIZED>
1

> <PUBCHEM_CACTVS_COMPLEXITY>
804

> <PUBCHEM_CACTVS_HBOND_ACCEPTOR>
13

> <PUBCHEM_CACTVS_HBOND_DONOR>
3

> <PUBCHEM_CACTVS_ROTATABLE_BOND>
8

> <PUBCHEM_CACTVS_SUBSKEYS>
AAADceB78YBAAAAAAAAAAAAAAAAAAAAAAAA8WIAAAAAAAAAB8AAAHwQQQAAADAjBnhS/8JbIEAKoAzd3dHCCgC01EqAJ2KE4dNiIaPLA3dGUJQhokgLIyacYiQCeCAAAAAAAAAAQAAAAAAAAAAAAAAAAAA==

> <PUBCHEM_IUPAC_OPENEYE_NAME>
N-methyl-4-[[4-[[3-[methyl(methylsulfonyl)amino]pyrazin-2-yl]methylamino]-5-(trifluoromethyl)pyrimidin-2-yl]amino]benzamide

> <PUBCHEM_IUPAC_CAS_NAME>
N-methyl-4-[[4-[[3-[methyl(methylsulfonyl)amino]-2-pyrazinyl]methylamino]-5-(trifluoromethyl)-2-pyrimidinyl]amino]benzamide

> <PUBCHEM_IUPAC_NAME_MARKUP>
<I>N</I>-methyl-4-[[4-[[3-[methyl(methylsulfonyl)amino]pyrazin-2-yl]methylamino]-5-(trifluoromethyl)pyrimidin-2-yl]amino]benzamide

> <PUBCHEM_IUPAC_NAME>
N-methyl-4-[[4-[[3-[methyl(methylsulfonyl)amino]pyrazin-2-yl]methylamino]-5-(trifluoromethyl)pyrimidin-2-yl]amino]benzamide

> <PUBCHEM_IUPAC_SYSTEMATIC_NAME>
N-methyl-4-[[4-[[3-[methyl(methylsulfonyl)amino]pyrazin-2-yl]methylamino]-5-(trifluoromethyl)pyrimidin-2-yl]amino]benzamide

> <PUBCHEM_IUPAC_TRADITIONAL_NAME>
4-[[4-[[3-[mesyl(methyl)amino]pyrazin-2-yl]methylamino]-5-(trifluoromethyl)pyrimidin-2-yl]amino]-N-methyl-benzamide

> <PUBCHEM_IUPAC_INCHI>
InChI=1S/C20H21F3N8O3S/c1-24-18(32)12-4-6-13(7-5-12)29-19-28-10-14(20(21,22)23)16(30-19)27-11-15-17(26-9-8-25-15)31(2)35(3,33)34/h4-10H,11H2,1-3H3,(H,24,32)(H2,27,28,29,30)

> <PUBCHEM_IUPAC_INCHIKEY>
FWLMVFUGMHIOAA-UHFFFAOYSA-N

> <PUBCHEM_XLOGP3_AA>
1.4

> <PUBCHEM_EXACT_MASS>
510.14094222

> <PUBCHEM_MOLECULAR_FORMULA>
C20H21F3N8O3S

> <PUBCHEM_MOLECULAR_WEIGHT>
510.5

> <PUBCHEM_OPENEYE_CAN_SMILES>
CNC(=O)C1=CC=C(C=C1)NC2=NC=C(C(=N2)NCC3=NC=CN=C3N(C)S(=O)(=O)C)C(F)(F)F

> <PUBCHEM_OPENEYE_ISO_SMILES>
CNC(=O)C1=CC=C(C=C1)NC2=NC=C(C(=N2)NCC3=NC=CN=C3N(C)S(=O)(=O)C)C(F)(F)F

> <PUBCHEM_CACTVS_TPSA>
151

> <PUBCHEM_MONOISOTOPIC_WEIGHT>
510.14094222

> <PUBCHEM_TOTAL_CHARGE>
0

> <PUBCHEM_HEAVY_ATOM_COUNT>
35

> <PUBCHEM_ATOM_DEF_STEREO_COUNT>
0

> <PUBCHEM_ATOM_UDEF_STEREO_COUNT>
0

> <PUBCHEM_BOND_DEF_STEREO_COUNT>
0

> <PUBCHEM_BOND_UDEF_STEREO_COUNT>
0

> <PUBCHEM_ISOTOPIC_ATOM_COUNT>
0

> <PUBCHEM_COMPONENT_COUNT>
1

> <PUBCHEM_CACTVS_TAUTO_COUNT>
-1

> <PUBCHEM_COORDINATE_TYPE>
1
5
255

> <PUBCHEM_BONDANNOTATIONS>
10  16  8
10  27  8
11  18  8
11  28  8
12  19  8
12  23  8
14  23  8
14  24  8
16  18  8
19  21  8
21  24  8
26  29  8
26  30  8
27  28  8
29  32  8
30  33  8
31  32  8
31  33  8

$$$$
25212148
  -OEChem-11282412102D

 74 79  0     0  0  0  0  0  0999 V2000
    9.8744   -3.3962    0.0000 S   0  0  0  0  0  0  0  0  0  0  0  0
    6.3301   -3.2010    0.0000 F   0  0  0  0  0  0  0  0  0  0  0  0
    2.8660    6.7990    0.0000 F   0  0  0  0  0  0  0  0  0  0  0  0
    5.4641    1.2990    0.0000 O   0  0  0  0  0  0  0  0  0  0  0  0
    4.5981    2.7990    0.0000 O   0  0  0  0  0  0  0  0  0  0  0  0
    8.0622   -2.2010    0.0000 O   0  0  0  0  0  0  0  0  0  0  0  0
   17.4580   -5.9330    0.0000 O   0  0  0  0  0  0  0  0  0  0  0  0
    4.5981   -0.2010    0.0000 N   0  0  0  0  0  0  0  0  0  0  0  0
    2.8660    2.7990    0.0000 N   0  0  0  0  0  0  0  0  0  0  0  0
    8.0622   -5.2010    0.0000 N   0  0  0  0  0  0  0  0  0  0  0  0
   14.9580   -5.0670    0.0000 N   0  0  0  0  0  0  0  0  0  0  0  0
   11.9580   -3.3349    0.0000 N   0  0  0  0  0  0  0  0  0  0  0  0
    3.7320    1.2990    0.0000 C   0  0  0  0  0  0  0  0  0  0  0  0
    2.7320    1.2990    0.0000 C   0  0  0  0  0  0  0  0  0  0  0  0
    3.2320    0.4330    0.0000 C   0  0  0  0  0  0  0  0  0  0  0  0
    4.5981    0.7990    0.0000 C   0  0  0  0  0  0  0  0  0  0  0  0
    3.7320    2.2990    0.0000 C   0  0  0  0  0  0  0  0  0  0  0  0
    5.4641   -0.7010    0.0000 C   0  0  0  0  0  0  0  0  0  0  0  0
    2.8660    3.7990    0.0000 C   0  0  0  0  0  0  0  0  0  0  0  0
    5.4641   -1.7010    0.0000 C   0  0  0  0  0  0  0  0  0  0  0  0
    6.3301   -0.2010    0.0000 C   0  0  0  0  0  0  0  0  0  0  0  0
    3.7320    4.2990    0.0000 C   0  0  0  0  0  0  0  0  0  0  0  0
    2.0000    4.2990    0.0000 C   0  0  0  0  0  0  0  0  0  0  0  0
    6.3301   -2.2010    0.0000 C   0  0  0  0  0  0  0  0  0  0  0  0
    7.1962   -0.7010    0.0000 C   0  0  0  0  0  0  0  0  0  0  0  0
    3.7320    5.2990    0.0000 C   0  0  0  0  0  0  0  0  0  0  0  0
    2.0000    5.2990    0.0000 C   0  0  0  0  0  0  0  0  0  0  0  0
    7.1962   -1.7010    0.0000 C   0  0  0  0  0  0  0  0  0  0  0  0
    2.8660    5.7990    0.0000 C   0  0  0  0  0  0  0  0  0  0  0  0
    8.0622   -3.2010    0.0000 C   0  0  0  0  0  0  0  0  0  0  0  0
    8.9282   -3.7010    0.0000 C   0  0  0  0  0  0  0  0  0  0  0  0
    8.9282   -4.7010    0.0000 C   0  0  0  0  0  0  0  0  0  0  0  0
    7.1962   -3.7010    0.0000 C   0  0  0  0  0  0  0  0  0  0  0  0
   10.4580   -4.2010    0.0000 C   0  0  0  0  0  0  0  0  0  0  0  0
    9.8744   -5.0057    0.0000 C   0  0  0  0  0  0  0  0  0  0  0  0
   11.4580   -4.2010    0.0000 C   0  0  0  0  0  0  0  0  0  0  0  0
    7.1962   -4.7010    0.0000 C   0  0  0  0  0  0  0  0  0  0  0  0
   13.4580   -4.2010    0.0000 C   0  0  0  0  0  0  0  0  0  0  0  0
   14.4580   -4.2010    0.0000 C   0  0  0  0  0  0  0  0  0  0  0  0
   11.9580   -5.0670    0.0000 C   0  0  0  0  0  0  0  0  0  0  0  0
   12.9580   -5.0670    0.0000 C   0  0  0  0  0  0  0  0  0  0  0  0
   12.9580   -3.3349    0.0000 C   0  0  0  0  0  0  0  0  0  0  0  0
   15.9580   -5.0670    0.0000 C   0  0  0  0  0  0  0  0  0  0  0  0
   16.4580   -5.9330    0.0000 C   0  0  0  0  0  0  0  0  0  0  0  0
   17.9580   -6.7990    0.0000 C   0  0  0  0  0  0  0  0  0  0  0  0
    2.6244    1.9096    0.0000 H   0  0  0  0  0  0  0  0  0  0  0  0
    2.1494    1.0870    0.0000 H   0  0  0  0  0  0  0  0  0  0  0  0
    2.7571    0.0345    0.0000 H   0  0  0  0  0  0  0  0  0  0  0  0
    3.7070    0.0345    0.0000 H   0  0  0  0  0  0  0  0  0  0  0  0
    4.0611   -0.5110    0.0000 H   0  0  0  0  0  0  0  0  0  0  0  0
    2.3291    2.4890    0.0000 H   0  0  0  0  0  0  0  0  0  0  0  0
    4.9272   -2.0110    0.0000 H   0  0  0  0  0  0  0  0  0  0  0  0
    6.3301    0.4190    0.0000 H   0  0  0  0  0  0  0  0  0  0  0  0
    4.2690    3.9890    0.0000 H   0  0  0  0  0  0  0  0  0  0  0  0
    1.4631    3.9890    0.0000 H   0  0  0  0  0  0  0  0  0  0  0  0
    7.7331   -0.3910    0.0000 H   0  0  0  0  0  0  0  0  0  0  0  0
    4.2690    5.6090    0.0000 H   0  0  0  0  0  0  0  0  0  0  0  0
    1.4631    5.6090    0.0000 H   0  0  0  0  0  0  0  0  0  0  0  0
    6.6592   -3.3910    0.0000 H   0  0  0  0  0  0  0  0  0  0  0  0
   10.0670   -5.5950    0.0000 H   0  0  0  0  0  0  0  0  0  0  0  0
   15.0406   -3.9889    0.0000 H   0  0  0  0  0  0  0  0  0  0  0  0
   14.3504   -3.5904    0.0000 H   0  0  0  0  0  0  0  0  0  0  0  0
    6.6592   -5.0110    0.0000 H   0  0  0  0  0  0  0  0  0  0  0  0
   11.6480   -5.6039    0.0000 H   0  0  0  0  0  0  0  0  0  0  0  0
   13.2680   -5.6039    0.0000 H   0  0  0  0  0  0  0  0  0  0  0  0
   14.6480   -5.6039    0.0000 H   0  0  0  0  0  0  0  0  0  0  0  0
   16.5406   -4.8549    0.0000 H   0  0  0  0  0  0  0  0  0  0  0  0
   15.8504   -4.4564    0.0000 H   0  0  0  0  0  0  0  0  0  0  0  0
   13.2680   -2.7980    0.0000 H   0  0  0  0  0  0  0  0  0  0  0  0
   15.8754   -6.1451    0.0000 H   0  0  0  0  0  0  0  0  0  0  0  0
   16.5657   -6.5436    0.0000 H   0  0  0  0  0  0  0  0  0  0  0  0
   17.4211   -7.1090    0.0000 H   0  0  0  0  0  0  0  0  0  0  0  0
   18.2680   -7.3360    0.0000 H   0  0  0  0  0  0  0  0  0  0  0  0
   18.4950   -6.4890    0.0000 H   0  0  0  0  0  0  0  0  0  0  0  0
  1 31  1  0  0  0  0
  1 34  1  0  0  0  0
  2 24  1  0  0  0  0
  3 29  1  0  0  0  0
  4 16  2  0  0  0  0
  5 17  2  0  0  0  0
  6 28  1  0  0  0  0
  6 30  1  0  0  0  0
  7 44  1  0  0  0  0
  7 45  1  0  0  0  0
  8 16  1  0  0  0  0
  8 18  1  0  0  0  0
  8 50  1  0  0  0  0
  9 17  1  0  0  0  0
  9 19  1  0  0  0  0
  9 51  1  0  0  0  0
 10 32  2  0  0  0  0
 10 37  1  0  0  0  0
 11 39  1  0  0  0  0
 11 43  1  0  0  0  0
 11 66  1  0  0  0  0
 12 36  2  0  0  0  0
 12 42  1  0  0  0  0
 13 14  1  0  0  0  0
 13 15  1  0  0  0  0
 13 16  1  0  0  0  0
 13 17  1  0  0  0  0
 14 15  1  0  0  0  0
 14 46  1  0  0  0  0
 14 47  1  0  0  0  0
 15 48  1  0  0  0  0
 15 49  1  0  0  0  0
 18 20  2  0  0  0  0
 18 21  1  0  0  0  0
 19 22  2  0  0  0  0
 19 23  1  0  0  0  0
 20 24  1  0  0  0  0
 20 52  1  0  0  0  0
 21 25  2  0  0  0  0
 21 53  1  0  0  0  0
 22 26  1  0  0  0  0
 22 54  1  0  0  0  0
 23 27  2  0  0  0  0
 23 55  1  0  0  0  0
 24 28  2  0  0  0  0
 25 28  1  0  0  0  0
 25 56  1  0  0  0  0
 26 29  2  0  0  0  0
 26 57  1  0  0  0  0
 27 29  1  0  0  0  0
 27 58  1  0  0  0  0
 30 31  2  0  0  0  0
 30 33  1  0  0  0  0
 31 32  1  0  0  0  0
 32 35  1  0  0  0  0
 33 37  2  0  0  0  0
 33 59  1  0  0  0  0
 34 35  2  0  0  0  0
 34 36  1  0  0  0  0
 35 60  1  0  0  0  0
 36 40  1  0  0  0  0
 37 63  1  0  0  0  0
 38 39  1  0  0  0  0
 38 41  1  0  0  0  0
 38 42  2  0  0  0  0
 39 61  1  0  0  0  0
 39 62  1  0  0  0  0
 40 41  2  0  0  0  0
 40 64  1  0  0  0  0
 41 65  1  0  0  0  0
 42 69  1  0  0  0  0
 43 44  1  0  0  0  0
 43 67  1  0  0  0  0
 43 68  1  0  0  0  0
 44 70  1  0  0  0  0
 44 71  1  0  0  0  0
 45 72  1  0  0  0  0
 45 73  1  0  0  0  0
 45 74  1  0  0  0  0
M  END
> <PUBCHEM_COMPOUND_CID>
25212148

> <PUBCHEM_COMPOUND_CANONICALIZED>
1

> <PUBCHEM_CACTVS_COMPLEXITY>
1000

> <PUBCHEM_CACTVS_HBOND_ACCEPTOR>
10

> <PUBCHEM_CACTVS_HBOND_DONOR>
3

> <PUBCHEM_CACTVS_ROTATABLE_BOND>
12

> <PUBCHEM_CACTVS_SUBSKEYS>
AAADceB/uYBAAAAAAAAAAAAAGAAAASAAAAA8eIEAAAAAAFgB/gAAHwQQAAAADgzh3g4+x7LIFAisAzV3VACDqKAxKjBI2L8+bJgOJvrs8ZuHOCzm1Bn46AewwOAMAEAAAAAAAAAAgAAAAAAAAAAAAAAAAA==

> <PUBCHEM_IUPAC_OPENEYE_NAME>
N1'-[3-fluoro-4-[2-[5-[(2-methoxyethylamino)methyl]-2-pyridyl]thieno[3,2-b]pyridin-7-yl]oxy-phenyl]-N1-(4-fluorophenyl)cyclopropane-1,1-dicarboxamide

> <PUBCHEM_IUPAC_CAS_NAME>
N1'-[3-fluoro-4-[[2-[5-[(2-methoxyethylamino)methyl]-2-pyridinyl]-7-thieno[3,2-b]pyridinyl]oxy]phenyl]-N1-(4-fluorophenyl)cyclopropane-1,1-dicarboxamide

> <PUBCHEM_IUPAC_NAME_MARKUP>
1-<I>N</I>&apos;-[3-fluoro-4-[2-[5-[(2-methoxyethylamino)methyl]pyridin-2-yl]thieno[3,2-b]pyridin-7-yl]oxyphenyl]-1-<I>N</I>-(4-fluorophenyl)cyclopropane-1,1-dicarboxamide

> <PUBCHEM_IUPAC_NAME>
1-N'-[3-fluoro-4-[2-[5-[(2-methoxyethylamino)methyl]pyridin-2-yl]thieno[3,2-b]pyridin-7-yl]oxyphenyl]-1-N-(4-fluorophenyl)cyclopropane-1,1-dicarboxamide

> <PUBCHEM_IUPAC_SYSTEMATIC_NAME>
N1'-[3-fluoranyl-4-[2-[5-[(2-methoxyethylamino)methyl]pyridin-2-yl]thieno[3,2-b]pyridin-7-yl]oxy-phenyl]-N1-(4-fluorophenyl)cyclopropane-1,1-dicarboxamide

> <PUBCHEM_IUPAC_TRADITIONAL_NAME>
N'-[3-fluoro-4-[2-[5-[(2-methoxyethylamino)methyl]-2-pyridyl]thieno[3,2-b]pyridin-7-yl]oxy-phenyl]-N-(4-fluorophenyl)cyclopropane-1,1-dicarboxamide

> <PUBCHEM_IUPAC_INCHI>
InChI=1S/C33H29F2N5O4S/c1-43-15-14-36-18-20-2-8-25(38-19-20)29-17-26-30(45-29)28(10-13-37-26)44-27-9-7-23(16-24(27)35)40-32(42)33(11-12-33)31(41)39-22-5-3-21(34)4-6-22/h2-10,13,16-17,19,36H,11-12,14-15,18H2,1H3,(H,39,41)(H,40,42)

> <PUBCHEM_IUPAC_INCHIKEY>
WLAVZAAODLTUSW-UHFFFAOYSA-N

> <PUBCHEM_XLOGP3_AA>
5.2

> <PUBCHEM_EXACT_MASS>
629.19083192

> <PUBCHEM_MOLECULAR_FORMULA>
C33H29F2N5O4S

> <PUBCHEM_MOLECULAR_WEIGHT>
629.7

> <PUBCHEM_OPENEYE_CAN_SMILES>
COCCNCC1=CN=C(C=C1)C2=CC3=NC=CC(=C3S2)OC4=C(C=C(C=C4)NC(=O)C5(CC5)C(=O)NC6=CC=C(C=C6)F)F

> <PUBCHEM_OPENEYE_ISO_SMILES>
COCCNCC1=CN=C(C=C1)C2=CC3=NC=CC(=C3S2)OC4=C(C=C(C=C4)NC(=O)C5(CC5)C(=O)NC6=CC=C(C=C6)F)F

> <PUBCHEM_CACTVS_TPSA>
143

> <PUBCHEM_MONOISOTOPIC_WEIGHT>
629.19083192

> <PUBCHEM_TOTAL_CHARGE>
0

> <PUBCHEM_HEAVY_ATOM_COUNT>
45

> <PUBCHEM_ATOM_DEF_STEREO_COUNT>
0

> <PUBCHEM_ATOM_UDEF_STEREO_COUNT>
0

> <PUBCHEM_BOND_DEF_STEREO_COUNT>
0

> <PUBCHEM_BOND_UDEF_STEREO_COUNT>
0

> <PUBCHEM_ISOTOPIC_ATOM_COUNT>
0

> <PUBCHEM_COMPONENT_COUNT>
1

> <PUBCHEM_CACTVS_TAUTO_COUNT>
-1

> <PUBCHEM_COORDINATE_TYPE>
1
5
255

> <PUBCHEM_BONDANNOTATIONS>
1  31  8
1  34  8
10  32  8
10  37  8
12  36  8
12  42  8
18  20  8
18  21  8
19  22  8
19  23  8
20  24  8
21  25  8
22  26  8
23  27  8
24  28  8
25  28  8
26  29  8
27  29  8
30  31  8
30  33  8
31  32  8
32  35  8
33  37  8
34  35  8
36  40  8
38  41  8
38  42  8
40  41  8

$$$$
44603533
  -OEChem-11282412102D

 63 68  0     0  0  0  0  0  0999 V2000
    5.4641   -1.8988    0.0000 F   0  0  0  0  0  0  0  0  0  0  0  0
    2.0000    6.1012    0.0000 F   0  0  0  0  0  0  0  0  0  0  0  0
    7.1962   -2.8988    0.0000 O   0  0  0  0  0  0  0  0  0  0  0  0
    4.5981    2.6012    0.0000 O   0  0  0  0  0  0  0  0  0  0  0  0
    5.4641    1.1012    0.0000 O   0  0  0  0  0  0  0  0  0  0  0  0
   10.7404   -4.7035    0.0000 N   0  0  0  0  0  0  0  0  0  0  0  0
    5.4641    4.1012    0.0000 N   0  0  0  0  0  0  0  0  0  0  0  0
   11.3241   -3.8988    0.0000 N   0  0  0  0  0  0  0  0  0  0  0  0
    7.1962    1.1012    0.0000 N   0  0  0  0  0  0  0  0  0  0  0  0
    5.6135   -5.2352    0.0000 N   0  0  0  0  0  0  0  0  0  0  0  0
    6.1135   -6.1012    0.0000 N   0  0  0  0  0  0  0  0  0  0  0  0
    9.7942   -4.3988    0.0000 C   0  0  0  0  0  0  0  0  0  0  0  0
    9.7942   -3.3988    0.0000 C   0  0  0  0  0  0  0  0  0  0  0  0
    8.0622   -4.3988    0.0000 C   0  0  0  0  0  0  0  0  0  0  0  0
    8.0622   -3.3988    0.0000 C   0  0  0  0  0  0  0  0  0  0  0  0
    8.9282   -4.8988    0.0000 C   0  0  0  0  0  0  0  0  0  0  0  0
    8.9282   -2.8988    0.0000 C   0  0  0  0  0  0  0  0  0  0  0  0
    7.1962   -4.8988    0.0000 C   0  0  0  0  0  0  0  0  0  0  0  0
   10.7404   -3.0941    0.0000 C   0  0  0  0  0  0  0  0  0  0  0  0
    6.3301    4.6012    0.0000 C   0  0  0  0  0  0  0  0  0  0  0  0
    6.3301    2.6012    0.0000 C   0  0  0  0  0  0  0  0  0  0  0  0
   11.0511   -5.6540    0.0000 C   0  0  0  0  0  0  0  0  0  0  0  0
    5.4641    3.1012    0.0000 C   0  0  0  0  0  0  0  0  0  0  0  0
    4.5981    4.6012    0.0000 C   0  0  0  0  0  0  0  0  0  0  0  0
    7.1962   -1.8988    0.0000 C   0  0  0  0  0  0  0  0  0  0  0  0
    7.1962    4.1012    0.0000 C   0  0  0  0  0  0  0  0  0  0  0  0
    6.2826   -4.4920    0.0000 C   0  0  0  0  0  0  0  0  0  0  0  0
    7.1962    3.1012    0.0000 C   0  0  0  0  0  0  0  0  0  0  0  0
    7.0916   -5.8933    0.0000 C   0  0  0  0  0  0  0  0  0  0  0  0
    7.1962    0.1012    0.0000 C   0  0  0  0  0  0  0  0  0  0  0  0
    6.3301    1.6012    0.0000 C   0  0  0  0  0  0  0  0  0  0  0  0
    6.3301    5.6012    0.0000 C   0  0  0  0  0  0  0  0  0  0  0  0
    6.3301   -1.3988    0.0000 C   0  0  0  0  0  0  0  0  0  0  0  0
    8.0622   -1.3988    0.0000 C   0  0  0  0  0  0  0  0  0  0  0  0
    6.3301   -0.3988    0.0000 C   0  0  0  0  0  0  0  0  0  0  0  0
    8.0622   -0.3988    0.0000 C   0  0  0  0  0  0  0  0  0  0  0  0
    3.7320    4.1012    0.0000 C   0  0  0  0  0  0  0  0  0  0  0  0
    4.5981    5.6012    0.0000 C   0  0  0  0  0  0  0  0  0  0  0  0
    2.8660    4.6012    0.0000 C   0  0  0  0  0  0  0  0  0  0  0  0
    3.7320    6.1012    0.0000 C   0  0  0  0  0  0  0  0  0  0  0  0
    2.8660    5.6012    0.0000 C   0  0  0  0  0  0  0  0  0  0  0  0
    8.9282   -5.5188    0.0000 H   0  0  0  0  0  0  0  0  0  0  0  0
    8.9282   -2.2788    0.0000 H   0  0  0  0  0  0  0  0  0  0  0  0
   10.9331   -2.5047    0.0000 H   0  0  0  0  0  0  0  0  0  0  0  0
   10.4618   -5.8466    0.0000 H   0  0  0  0  0  0  0  0  0  0  0  0
   11.2437   -6.2434    0.0000 H   0  0  0  0  0  0  0  0  0  0  0  0
   11.6404   -5.4614    0.0000 H   0  0  0  0  0  0  0  0  0  0  0  0
    7.7331    4.4112    0.0000 H   0  0  0  0  0  0  0  0  0  0  0  0
    6.1537   -3.8856    0.0000 H   0  0  0  0  0  0  0  0  0  0  0  0
    7.7331    2.7912    0.0000 H   0  0  0  0  0  0  0  0  0  0  0  0
    7.5524   -6.3082    0.0000 H   0  0  0  0  0  0  0  0  0  0  0  0
    6.9501    5.6012    0.0000 H   0  0  0  0  0  0  0  0  0  0  0  0
    6.3301    6.2212    0.0000 H   0  0  0  0  0  0  0  0  0  0  0  0
    5.7101    5.6012    0.0000 H   0  0  0  0  0  0  0  0  0  0  0  0
    8.5991   -1.7088    0.0000 H   0  0  0  0  0  0  0  0  0  0  0  0
    7.7331    1.4112    0.0000 H   0  0  0  0  0  0  0  0  0  0  0  0
    5.7932   -0.0888    0.0000 H   0  0  0  0  0  0  0  0  0  0  0  0
    8.5991   -0.0888    0.0000 H   0  0  0  0  0  0  0  0  0  0  0  0
    3.7320    3.4812    0.0000 H   0  0  0  0  0  0  0  0  0  0  0  0
    5.1350    5.9112    0.0000 H   0  0  0  0  0  0  0  0  0  0  0  0
    4.9969   -5.1704    0.0000 H   0  0  0  0  0  0  0  0  0  0  0  0
    2.3291    4.2912    0.0000 H   0  0  0  0  0  0  0  0  0  0  0  0
    3.7320    6.7212    0.0000 H   0  0  0  0  0  0  0  0  0  0  0  0
  1 33  1  0  0  0  0
  2 41  1  0  0  0  0
  3 15  1  0  0  0  0
  3 25  1  0  0  0  0
  4 23  2  0  0  0  0
  5 31  2  0  0  0  0
  6  8  1  0  0  0  0
  6 12  1  0  0  0  0
  6 22  1  0  0  0  0
  7 20  1  0  0  0  0
  7 23  1  0  0  0  0
  7 24  1  0  0  0  0
  8 19  2  0  0  0  0
  9 30  1  0  0  0  0
  9 31  1  0  0  0  0
  9 56  1  0  0  0  0
 10 11  1  0  0  0  0
 10 27  1  0  0  0  0
 10 61  1  0  0  0  0
 11 29  2  0  0  0  0
 12 13  1  0  0  0  0
 12 16  2  0  0  0  0
 13 17  2  0  0  0  0
 13 19  1  0  0  0  0
 14 15  2  0  0  0  0
 14 16  1  0  0  0  0
 14 18  1  0  0  0  0
 15 17  1  0  0  0  0
 16 42  1  0  0  0  0
 17 43  1  0  0  0  0
 18 27  2  0  0  0  0
 18 29  1  0  0  0  0
 19 44  1  0  0  0  0
 20 26  2  0  0  0  0
 20 32  1  0  0  0  0
 21 23  1  0  0  0  0
 21 28  2  0  0  0  0
 21 31  1  0  0  0  0
 22 45  1  0  0  0  0
 22 46  1  0  0  0  0
 22 47  1  0  0  0  0
 24 37  2  0  0  0  0
 24 38  1  0  0  0  0
 25 33  2  0  0  0  0
 25 34  1  0  0  0  0
 26 28  1  0  0  0  0
 26 48  1  0  0  0  0
 27 49  1  0  0  0  0
 28 50  1  0  0  0  0
 29 51  1  0  0  0  0
 30 35  2  0  0  0  0
 30 36  1  0  0  0  0
 32 52  1  0  0  0  0
 32 53  1  0  0  0  0
 32 54  1  0  0  0  0
 33 35  1  0  0  0  0
 34 36  2  0  0  0  0
 34 55  1  0  0  0  0
 35 57  1  0  0  0  0
 36 58  1  0  0  0  0
 37 39  1  0  0  0  0
 37 59  1  0  0  0  0
 38 40  2  0  0  0  0
 38 60  1  0  0  0  0
 39 41  2  0  0  0  0
 39 62  1  0  0  0  0
 40 41  1  0  0  0  0
 40 63  1  0  0  0  0
M  END
> <PUBCHEM_COMPOUND_CID>
44603533

> <PUBCHEM_COMPOUND_CANONICALIZED>
1

> <PUBCHEM_CACTVS_COMPLEXITY>
1050

> <PUBCHEM_CACTVS_HBOND_ACCEPTOR>
7

> <PUBCHEM_CACTVS_HBOND_DONOR>
2

> <PUBCHEM_CACTVS_ROTATABLE_BOND>
6

> <PUBCHEM_CACTVS_SUBSKEYS>
AAADceB7sYAAAAAAAAAAAAAAAAAAAWLAAAAwYMEAAAAAAFgB/AAAHwAYAAAADAzBngw+xvPrBACqAzV3VACSDAAhogAY+aE+bNgMJqrM8duGvCjk3BHI6YewwPAOwEABQAAKAACAgAKAABQAAAAAAAAAAA==

> <PUBCHEM_IUPAC_OPENEYE_NAME>
N-[3-fluoro-4-[1-methyl-6-(1H-pyrazol-4-yl)indazol-5-yl]oxy-phenyl]-1-(4-fluorophenyl)-6-methyl-2-oxo-pyridine-3-carboxamide

> <PUBCHEM_IUPAC_CAS_NAME>
N-[3-fluoro-4-[[1-methyl-6-(1H-pyrazol-4-yl)-5-indazolyl]oxy]phenyl]-1-(4-fluorophenyl)-6-methyl-2-oxo-3-pyridinecarboxamide

> <PUBCHEM_IUPAC_NAME_MARKUP>
<I>N</I>-[3-fluoro-4-[1-methyl-6-(1<I>H</I>-pyrazol-4-yl)indazol-5-yl]oxyphenyl]-1-(4-fluorophenyl)-6-methyl-2-oxopyridine-3-carboxamide

> <PUBCHEM_IUPAC_NAME>
N-[3-fluoro-4-[1-methyl-6-(1H-pyrazol-4-yl)indazol-5-yl]oxyphenyl]-1-(4-fluorophenyl)-6-methyl-2-oxopyridine-3-carboxamide

> <PUBCHEM_IUPAC_SYSTEMATIC_NAME>
N-[3-fluoranyl-4-[1-methyl-6-(1H-pyrazol-4-yl)indazol-5-yl]oxy-phenyl]-1-(4-fluorophenyl)-6-methyl-2-oxidanylidene-pyridine-3-carboxamide

> <PUBCHEM_IUPAC_TRADITIONAL_NAME>
N-[3-fluoro-4-[1-methyl-6-(1H-pyrazol-4-yl)indazol-5-yl]oxy-phenyl]-1-(4-fluorophenyl)-2-keto-6-methyl-nicotinamide

> <PUBCHEM_IUPAC_INCHI>
InChI=1S/C30H22F2N6O3/c1-17-3-9-23(30(40)38(17)22-7-4-20(31)5-8-22)29(39)36-21-6-10-27(25(32)12-21)41-28-11-18-16-35-37(2)26(18)13-24(28)19-14-33-34-15-19/h3-16H,1-2H3,(H,33,34)(H,36,39)

> <PUBCHEM_IUPAC_INCHIKEY>
QHADVLVFMKEIIP-UHFFFAOYSA-N

> <PUBCHEM_XLOGP3_AA>
4.7

> <PUBCHEM_EXACT_MASS>
552.17214491

> <PUBCHEM_MOLECULAR_FORMULA>
C30H22F2N6O3

> <PUBCHEM_MOLECULAR_WEIGHT>
552.5

> <PUBCHEM_OPENEYE_CAN_SMILES>
CC1=CC=C(C(=O)N1C2=CC=C(C=C2)F)C(=O)NC3=CC(=C(C=C3)OC4=C(C=C5C(=C4)C=NN5C)C6=CNN=C6)F

> <PUBCHEM_OPENEYE_ISO_SMILES>
CC1=CC=C(C(=O)N1C2=CC=C(C=C2)F)C(=O)NC3=CC(=C(C=C3)OC4=C(C=C5C(=C4)C=NN5C)C6=CNN=C6)F

> <PUBCHEM_CACTVS_TPSA>
105

> <PUBCHEM_MONOISOTOPIC_WEIGHT>
552.17214491

> <PUBCHEM_TOTAL_CHARGE>
0

> <PUBCHEM_HEAVY_ATOM_COUNT>
41

> <PUBCHEM_ATOM_DEF_STEREO_COUNT>
0

> <PUBCHEM_ATOM_UDEF_STEREO_COUNT>
0

> <PUBCHEM_BOND_DEF_STEREO_COUNT>
0

> <PUBCHEM_BOND_UDEF_STEREO_COUNT>
0

> <PUBCHEM_ISOTOPIC_ATOM_COUNT>
0

> <PUBCHEM_COMPONENT_COUNT>
1

> <PUBCHEM_CACTVS_TAUTO_COUNT>
-1

> <PUBCHEM_COORDINATE_TYPE>
1
5
255

> <PUBCHEM_BONDANNOTATIONS>
10  11  8
10  27  8
11  29  8
12  13  8
12  16  8
13  17  8
13  19  8
14  15  8
14  16  8
15  17  8
18  27  8
18  29  8
20  26  8
21  23  8
21  28  8
24  37  8
24  38  8
25  33  8
25  34  8
26  28  8
30  35  8
30  36  8
33  35  8
34  36  8
37  39  8
38  40  8
39  41  8
40  41  8
6  12  8
6  8  8
7  20  8
7  23  8
8  19  8

$$$$
44595079
  -OEChem-11282412102D

 58 61  0     0  0  0  0  0  0999 V2000
    6.8671   -4.9330    0.0000 S   0  0  0  0  0  0  0  0  0  0  0  0
    7.8671   -4.9330    0.0000 O   0  0  0  0  0  0  0  0  0  0  0  0
    5.8671   -4.9330    0.0000 O   0  0  0  0  0  0  0  0  0  0  0  0
    3.4030    5.0670    0.0000 O   0  0  0  0  0  0  0  0  0  0  0  0
    5.1350    5.0670    0.0000 N   0  0  0  0  0  0  0  0  0  0  0  0
    6.8671   -3.9330    0.0000 N   0  0  0  0  0  0  0  0  0  0  0  0
    6.8671   -1.9330    0.0000 N   0  0  0  0  0  0  0  0  0  0  0  0
    6.0010    3.5670    0.0000 N   0  0  0  0  0  0  0  0  0  0  0  0
    6.8671    2.0670    0.0000 N   0  0  0  0  0  0  0  0  0  0  0  0
    5.1350    2.0670    0.0000 N   0  0  0  0  0  0  0  0  0  0  0  0
    2.5369    3.5670    0.0000 N   0  0  0  0  0  0  0  0  0  0  0  0
    6.0010    5.5670    0.0000 C   0  0  0  0  0  0  0  0  0  0  0  0
    7.0010    5.5670    0.0000 C   0  0  0  0  0  0  0  0  0  0  0  0
    6.5010    6.4330    0.0000 C   0  0  0  0  0  0  0  0  0  0  0  0
    7.7331   -3.4330    0.0000 C   0  0  0  0  0  0  0  0  0  0  0  0
    6.0010   -3.4330    0.0000 C   0  0  0  0  0  0  0  0  0  0  0  0
    7.7331   -2.4330    0.0000 C   0  0  0  0  0  0  0  0  0  0  0  0
    6.0010   -2.4330    0.0000 C   0  0  0  0  0  0  0  0  0  0  0  0
    5.1350    4.0670    0.0000 C   0  0  0  0  0  0  0  0  0  0  0  0
    6.8671   -0.9330    0.0000 C   0  0  0  0  0  0  0  0  0  0  0  0
    6.8671   -5.9330    0.0000 C   0  0  0  0  0  0  0  0  0  0  0  0
    4.2690    3.5670    0.0000 C   0  0  0  0  0  0  0  0  0  0  0  0
    7.7331   -0.4330    0.0000 C   0  0  0  0  0  0  0  0  0  0  0  0
    6.0010   -0.4330    0.0000 C   0  0  0  0  0  0  0  0  0  0  0  0
    7.7331   -6.4330    0.0000 C   0  0  0  0  0  0  0  0  0  0  0  0
    6.8671    1.0670    0.0000 C   0  0  0  0  0  0  0  0  0  0  0  0
    6.0010    2.5670    0.0000 C   0  0  0  0  0  0  0  0  0  0  0  0
    7.7331    0.5670    0.0000 C   0  0  0  0  0  0  0  0  0  0  0  0
    6.0010    0.5670    0.0000 C   0  0  0  0  0  0  0  0  0  0  0  0
    4.2690    2.5670    0.0000 C   0  0  0  0  0  0  0  0  0  0  0  0
    3.4030    4.0670    0.0000 C   0  0  0  0  0  0  0  0  0  0  0  0
    5.5626    6.0054    0.0000 H   0  0  0  0  0  0  0  0  0  0  0  0
    7.1087    4.9564    0.0000 H   0  0  0  0  0  0  0  0  0  0  0  0
    7.5836    5.7790    0.0000 H   0  0  0  0  0  0  0  0  0  0  0  0
    6.9760    6.8315    0.0000 H   0  0  0  0  0  0  0  0  0  0  0  0
    6.0261    6.8315    0.0000 H   0  0  0  0  0  0  0  0  0  0  0  0
    4.5981    5.3770    0.0000 H   0  0  0  0  0  0  0  0  0  0  0  0
    7.9451   -4.0156    0.0000 H   0  0  0  0  0  0  0  0  0  0  0  0
    8.3437   -3.3254    0.0000 H   0  0  0  0  0  0  0  0  0  0  0  0
    5.3905   -3.3254    0.0000 H   0  0  0  0  0  0  0  0  0  0  0  0
    5.7890   -4.0156    0.0000 H   0  0  0  0  0  0  0  0  0  0  0  0
    8.3437   -2.5407    0.0000 H   0  0  0  0  0  0  0  0  0  0  0  0
    7.9451   -1.8504    0.0000 H   0  0  0  0  0  0  0  0  0  0  0  0
    5.7890   -1.8504    0.0000 H   0  0  0  0  0  0  0  0  0  0  0  0
    5.3905   -2.5407    0.0000 H   0  0  0  0  0  0  0  0  0  0  0  0
    6.2565   -5.8254    0.0000 H   0  0  0  0  0  0  0  0  0  0  0  0
    6.6550   -6.5156    0.0000 H   0  0  0  0  0  0  0  0  0  0  0  0
    8.2700   -0.7430    0.0000 H   0  0  0  0  0  0  0  0  0  0  0  0
    5.4641   -0.7430    0.0000 H   0  0  0  0  0  0  0  0  0  0  0  0
    7.4231   -6.9700    0.0000 H   0  0  0  0  0  0  0  0  0  0  0  0
    8.2700   -6.7430    0.0000 H   0  0  0  0  0  0  0  0  0  0  0  0
    8.0431   -5.8961    0.0000 H   0  0  0  0  0  0  0  0  0  0  0  0
    8.2700    0.8770    0.0000 H   0  0  0  0  0  0  0  0  0  0  0  0
    5.4641    0.8770    0.0000 H   0  0  0  0  0  0  0  0  0  0  0  0
    3.7320    2.2570    0.0000 H   0  0  0  0  0  0  0  0  0  0  0  0
    7.4040    2.3770    0.0000 H   0  0  0  0  0  0  0  0  0  0  0  0
    2.0000    3.8770    0.0000 H   0  0  0  0  0  0  0  0  0  0  0  0
    2.5369    2.9470    0.0000 H   0  0  0  0  0  0  0  0  0  0  0  0
  1  2  2  0  0  0  0
  1  3  2  0  0  0  0
  1  6  1  0  0  0  0
  1 21  1  0  0  0  0
  4 31  2  0  0  0  0
  5 12  1  0  0  0  0
  5 19  1  0  0  0  0
  5 37  1  0  0  0  0
  6 15  1  0  0  0  0
  6 16  1  0  0  0  0
  7 17  1  0  0  0  0
  7 18  1  0  0  0  0
  7 20  1  0  0  0  0
  8 19  2  0  0  0  0
  8 27  1  0  0  0  0
  9 26  1  0  0  0  0
  9 27  1  0  0  0  0
  9 56  1  0  0  0  0
 10 27  2  0  0  0  0
 10 30  1  0  0  0  0
 11 31  1  0  0  0  0
 11 57  1  0  0  0  0
 11 58  1  0  0  0  0
 12 13  1  0  0  0  0
 12 14  1  0  0  0  0
 12 32  1  0  0  0  0
 13 14  1  0  0  0  0
 13 33  1  0  0  0  0
 13 34  1  0  0  0  0
 14 35  1  0  0  0  0
 14 36  1  0  0  0  0
 15 17  1  0  0  0  0
 15 38  1  0  0  0  0
 15 39  1  0  0  0  0
 16 18  1  0  0  0  0
 16 40  1  0  0  0  0
 16 41  1  0  0  0  0
 17 42  1  0  0  0  0
 17 43  1  0  0  0  0
 18 44  1  0  0  0  0
 18 45  1  0  0  0  0
 19 22  1  0  0  0  0
 20 23  2  0  0  0  0
 20 24  1  0  0  0  0
 21 25  1  0  0  0  0
 21 46  1  0  0  0  0
 21 47  1  0  0  0  0
 22 30  2  0  0  0  0
 22 31  1  0  0  0  0
 23 28  1  0  0  0  0
 23 48  1  0  0  0  0
 24 29  2  0  0  0  0
 24 49  1  0  0  0  0
 25 50  1  0  0  0  0
 25 51  1  0  0  0  0
 25 52  1  0  0  0  0
 26 28  2  0  0  0  0
 26 29  1  0  0  0  0
 28 53  1  0  0  0  0
 29 54  1  0  0  0  0
 30 55  1  0  0  0  0
M  END
> <PUBCHEM_COMPOUND_CID>
44595079

> <PUBCHEM_COMPOUND_CANONICALIZED>
1

> <PUBCHEM_CACTVS_COMPLEXITY>
711

> <PUBCHEM_CACTVS_HBOND_ACCEPTOR>
9

> <PUBCHEM_CACTVS_HBOND_DONOR>
3

> <PUBCHEM_CACTVS_ROTATABLE_BOND>
8

> <PUBCHEM_CACTVS_SUBSKEYS>
AAADceB7sABAAAAAAAAAAAAAGAAAAAAAAAA8WIAAAAAAAAABwAAAHgQQQAAADCjF2gS/8JfIEAKoAjd3dHDCgCk1AqAJ2KEoZNiIaKrA2dGUJIhokALIyOcQAAAAAACAAAAAAAAAAQAAAAAAAAAAAAAAAA==

> <PUBCHEM_IUPAC_OPENEYE_NAME>
4-(cyclopropylamino)-2-[4-(4-ethylsulfonylpiperazin-1-yl)anilino]pyrimidine-5-carboxamide

> <PUBCHEM_IUPAC_CAS_NAME>
4-(cyclopropylamino)-2-[4-(4-ethylsulfonyl-1-piperazinyl)anilino]-5-pyrimidinecarboxamide

> <PUBCHEM_IUPAC_NAME_MARKUP>
4-(cyclopropylamino)-2-[4-(4-ethylsulfonylpiperazin-1-yl)anilino]pyrimidine-5-carboxamide

> <PUBCHEM_IUPAC_NAME>
4-(cyclopropylamino)-2-[4-(4-ethylsulfonylpiperazin-1-yl)anilino]pyrimidine-5-carboxamide

> <PUBCHEM_IUPAC_SYSTEMATIC_NAME>
4-(cyclopropylamino)-2-[[4-(4-ethylsulfonylpiperazin-1-yl)phenyl]amino]pyrimidine-5-carboxamide

> <PUBCHEM_IUPAC_TRADITIONAL_NAME>
4-(cyclopropylamino)-2-[4-(4-esylpiperazino)anilino]pyrimidine-5-carboxamide

> <PUBCHEM_IUPAC_INCHI>
InChI=1S/C20H27N7O3S/c1-2-31(29,30)27-11-9-26(10-12-27)16-7-5-15(6-8-16)24-20-22-13-17(18(21)28)19(25-20)23-14-3-4-14/h5-8,13-14H,2-4,9-12H2,1H3,(H2,21,28)(H2,22,23,24,25)

> <PUBCHEM_IUPAC_INCHIKEY>
BGLPECHZZQDNCD-UHFFFAOYSA-N

> <PUBCHEM_XLOGP3_AA>
1.9

> <PUBCHEM_EXACT_MASS>
445.18960892

> <PUBCHEM_MOLECULAR_FORMULA>
C20H27N7O3S

> <PUBCHEM_MOLECULAR_WEIGHT>
445.5

> <PUBCHEM_OPENEYE_CAN_SMILES>
CCS(=O)(=O)N1CCN(CC1)C2=CC=C(C=C2)NC3=NC=C(C(=N3)NC4CC4)C(=O)N

> <PUBCHEM_OPENEYE_ISO_SMILES>
CCS(=O)(=O)N1CCN(CC1)C2=CC=C(C=C2)NC3=NC=C(C(=N3)NC4CC4)C(=O)N

> <PUBCHEM_CACTVS_TPSA>
142

> <PUBCHEM_MONOISOTOPIC_WEIGHT>
445.18960892

> <PUBCHEM_TOTAL_CHARGE>
0

> <PUBCHEM_HEAVY_ATOM_COUNT>
31

> <PUBCHEM_ATOM_DEF_STEREO_COUNT>
0

> <PUBCHEM_ATOM_UDEF_STEREO_COUNT>
0

> <PUBCHEM_BOND_DEF_STEREO_COUNT>
0

> <PUBCHEM_BOND_UDEF_STEREO_COUNT>
0

> <PUBCHEM_ISOTOPIC_ATOM_COUNT>
0

> <PUBCHEM_COMPONENT_COUNT>
1

> <PUBCHEM_CACTVS_TAUTO_COUNT>
-1

> <PUBCHEM_COORDINATE_TYPE>
1
5
255

> <PUBCHEM_BONDANNOTATIONS>
10  27  8
10  30  8
19  22  8
20  23  8
20  24  8
22  30  8
23  28  8
24  29  8
26  28  8
26  29  8
8  19  8
8  27  8

$$$$
49831257
  -OEChem-11282412102D

 53 57  0     0  0  0  0  0  0999 V2000
    3.0000   -3.6830    0.0000 S   0  0  0  0  0  0  0  0  0  0  0  0
    8.9939    4.5490    0.0000 O   0  0  0  0  0  0  0  0  0  0  0  0
    2.5000   -4.5490    0.0000 O   0  0  0  0  0  0  0  0  0  0  0  0
    2.0000   -3.6830    0.0000 O   0  0  0  0  0  0  0  0  0  0  0  0
    4.7320   -2.6830    0.0000 N   0  0  0  0  0  0  0  0  0  0  0  0
    8.9939    2.8170    0.0000 N   0  0  0  0  0  0  0  0  0  0  0  0
    6.4641    2.3170    0.0000 N   0  0  0  0  0  0  0  0  0  0  0  0
    7.4103    2.0122    0.0000 N   0  0  0  0  0  0  0  0  0  0  0  0
    7.4103    3.6217    0.0000 N   0  0  0  0  0  0  0  0  0  0  0  0
   10.4939    3.6830    0.0000 C   0  0  0  0  0  0  0  0  0  0  0  0
   11.3600    3.1830    0.0000 C   0  0  0  0  0  0  0  0  0  0  0  0
   11.3600    4.1830    0.0000 C   0  0  0  0  0  0  0  0  0  0  0  0
    9.4939    3.6830    0.0000 C   0  0  0  0  0  0  0  0  0  0  0  0
    4.7320   -3.6830    0.0000 C   0  0  0  0  0  0  0  0  0  0  0  0
    3.8660   -2.1830    0.0000 C   0  0  0  0  0  0  0  0  0  0  0  0
    3.8660   -4.1830    0.0000 C   0  0  0  0  0  0  0  0  0  0  0  0
    3.0000   -2.6830    0.0000 C   0  0  0  0  0  0  0  0  0  0  0  0
    5.5981   -2.1830    0.0000 C   0  0  0  0  0  0  0  0  0  0  0  0
    5.5981   -1.1830    0.0000 C   0  0  0  0  0  0  0  0  0  0  0  0
    7.9939    2.8170    0.0000 C   0  0  0  0  0  0  0  0  0  0  0  0
    6.4641   -0.6830    0.0000 C   0  0  0  0  0  0  0  0  0  0  0  0
    4.7320   -0.6830    0.0000 C   0  0  0  0  0  0  0  0  0  0  0  0
    5.5981    0.8170    0.0000 C   0  0  0  0  0  0  0  0  0  0  0  0
    5.5981    1.8170    0.0000 C   0  0  0  0  0  0  0  0  0  0  0  0
    6.4641    0.3170    0.0000 C   0  0  0  0  0  0  0  0  0  0  0  0
    4.7320    0.3170    0.0000 C   0  0  0  0  0  0  0  0  0  0  0  0
    6.4641    3.3170    0.0000 C   0  0  0  0  0  0  0  0  0  0  0  0
    4.7320    2.3170    0.0000 C   0  0  0  0  0  0  0  0  0  0  0  0
    5.5981    3.8170    0.0000 C   0  0  0  0  0  0  0  0  0  0  0  0
    4.7320    3.3170    0.0000 C   0  0  0  0  0  0  0  0  0  0  0  0
   10.3335    4.2819    0.0000 H   0  0  0  0  0  0  0  0  0  0  0  0
   11.1479    2.6004    0.0000 H   0  0  0  0  0  0  0  0  0  0  0  0
   11.9705    3.0753    0.0000 H   0  0  0  0  0  0  0  0  0  0  0  0
   11.9705    4.2907    0.0000 H   0  0  0  0  0  0  0  0  0  0  0  0
   11.1479    4.7656    0.0000 H   0  0  0  0  0  0  0  0  0  0  0  0
    4.9441   -4.2656    0.0000 H   0  0  0  0  0  0  0  0  0  0  0  0
    5.3426   -3.5754    0.0000 H   0  0  0  0  0  0  0  0  0  0  0  0
    4.2646   -1.7081    0.0000 H   0  0  0  0  0  0  0  0  0  0  0  0
    3.4675   -1.7081    0.0000 H   0  0  0  0  0  0  0  0  0  0  0  0
    3.4675   -4.6580    0.0000 H   0  0  0  0  0  0  0  0  0  0  0  0
    4.2646   -4.6580    0.0000 H   0  0  0  0  0  0  0  0  0  0  0  0
    2.7880   -2.1004    0.0000 H   0  0  0  0  0  0  0  0  0  0  0  0
    2.3894   -2.7907    0.0000 H   0  0  0  0  0  0  0  0  0  0  0  0
    5.8101   -2.7656    0.0000 H   0  0  0  0  0  0  0  0  0  0  0  0
    6.2087   -2.0753    0.0000 H   0  0  0  0  0  0  0  0  0  0  0  0
    9.3039    2.2800    0.0000 H   0  0  0  0  0  0  0  0  0  0  0  0
    7.0010   -0.9930    0.0000 H   0  0  0  0  0  0  0  0  0  0  0  0
    4.1951   -0.9930    0.0000 H   0  0  0  0  0  0  0  0  0  0  0  0
    7.0010    0.6270    0.0000 H   0  0  0  0  0  0  0  0  0  0  0  0
    4.1951    0.6270    0.0000 H   0  0  0  0  0  0  0  0  0  0  0  0
    4.1951    2.0070    0.0000 H   0  0  0  0  0  0  0  0  0  0  0  0
    5.5981    4.4370    0.0000 H   0  0  0  0  0  0  0  0  0  0  0  0
    4.1951    3.6270    0.0000 H   0  0  0  0  0  0  0  0  0  0  0  0
  1  3  2  0  0  0  0
  1  4  2  0  0  0  0
  1 16  1  0  0  0  0
  1 17  1  0  0  0  0
  2 13  2  0  0  0  0
  5 14  1  0  0  0  0
  5 15  1  0  0  0  0
  5 18  1  0  0  0  0
  6 13  1  0  0  0  0
  6 20  1  0  0  0  0
  6 46  1  0  0  0  0
  7  8  1  0  0  0  0
  7 24  1  0  0  0  0
  7 27  1  0  0  0  0
  8 20  2  0  0  0  0
  9 20  1  0  0  0  0
  9 27  2  0  0  0  0
 10 11  1  0  0  0  0
 10 12  1  0  0  0  0
 10 13  1  0  0  0  0
 10 31  1  0  0  0  0
 11 12  1  0  0  0  0
 11 32  1  0  0  0  0
 11 33  1  0  0  0  0
 12 34  1  0  0  0  0
 12 35  1  0  0  0  0
 14 16  1  0  0  0  0
 14 36  1  0  0  0  0
 14 37  1  0  0  0  0
 15 17  1  0  0  0  0
 15 38  1  0  0  0  0
 15 39  1  0  0  0  0
 16 40  1  0  0  0  0
 16 41  1  0  0  0  0
 17 42  1  0  0  0  0
 17 43  1  0  0  0  0
 18 19  1  0  0  0  0
 18 44  1  0  0  0  0
 18 45  1  0  0  0  0
 19 21  2  0  0  0  0
 19 22  1  0  0  0  0
 21 25  1  0  0  0  0
 21 47  1  0  0  0  0
 22 26  2  0  0  0  0
 22 48  1  0  0  0  0
 23 24  1  0  0  0  0
 23 25  2  0  0  0  0
 23 26  1  0  0  0  0
 24 28  2  0  0  0  0
 25 49  1  0  0  0  0
 26 50  1  0  0  0  0
 27 29  1  0  0  0  0
 28 30  1  0  0  0  0
 28 51  1  0  0  0  0
 29 30  2  0  0  0  0
 29 52  1  0  0  0  0
 30 53  1  0  0  0  0
M  END
> <PUBCHEM_COMPOUND_CID>
49831257

> <PUBCHEM_COMPOUND_CANONICALIZED>
1

> <PUBCHEM_CACTVS_COMPLEXITY>
715

> <PUBCHEM_CACTVS_HBOND_ACCEPTOR>
6

> <PUBCHEM_CACTVS_HBOND_DONOR>
1

> <PUBCHEM_CACTVS_ROTATABLE_BOND>
5

> <PUBCHEM_CACTVS_SUBSKEYS>
AAADceB7sABAAAAAAAAAAAAAGAAAAWAAAAA8WIAAAAAAAFgB8AAAHgQYAAAADQjF3wSxsJ/IEAqqAydydHDShCshArAdmCE4ZJiIKPLAmZGEoAh4mQLoyCcQgMAOQAAAAAAAAACAAAAAAAAAAAAAAAAAAA==

> <PUBCHEM_IUPAC_OPENEYE_NAME>
N-[5-[4-[(1,1-dioxo-1,4-thiazinan-4-yl)methyl]phenyl]-[1,2,4]triazolo[1,5-a]pyridin-2-yl]cyclopropanecarboxamide

> <PUBCHEM_IUPAC_CAS_NAME>
N-[5-[4-[(1,1-dioxo-1,4-thiazinan-4-yl)methyl]phenyl]-[1,2,4]triazolo[1,5-a]pyridin-2-yl]cyclopropanecarboxamide

> <PUBCHEM_IUPAC_NAME_MARKUP>
<I>N</I>-[5-[4-[(1,1-dioxo-1,4-thiazinan-4-yl)methyl]phenyl]-[1,2,4]triazolo[1,5-a]pyridin-2-yl]cyclopropanecarboxamide

> <PUBCHEM_IUPAC_NAME>
N-[5-[4-[(1,1-dioxo-1,4-thiazinan-4-yl)methyl]phenyl]-[1,2,4]triazolo[1,5-a]pyridin-2-yl]cyclopropanecarboxamide

> <PUBCHEM_IUPAC_SYSTEMATIC_NAME>
N-[5-[4-[[1,1-bis(oxidanylidene)-1,4-thiazinan-4-yl]methyl]phenyl]-[1,2,4]triazolo[1,5-a]pyridin-2-yl]cyclopropanecarboxamide

> <PUBCHEM_IUPAC_TRADITIONAL_NAME>
N-[5-[4-[(1,1-diketo-1,4-thiazinan-4-yl)methyl]phenyl]-[1,2,4]triazolo[1,5-a]pyridin-2-yl]cyclopropanecarboxamide

> <PUBCHEM_IUPAC_INCHI>
InChI=1S/C21H23N5O3S/c27-20(17-8-9-17)23-21-22-19-3-1-2-18(26(19)24-21)16-6-4-15(5-7-16)14-25-10-12-30(28,29)13-11-25/h1-7,17H,8-14H2,(H,23,24,27)

> <PUBCHEM_IUPAC_INCHIKEY>
RIJLVEAXPNLDTC-UHFFFAOYSA-N

> <PUBCHEM_XLOGP3_AA>
1.4

> <PUBCHEM_EXACT_MASS>
425.15216079

> <PUBCHEM_MOLECULAR_FORMULA>
C21H23N5O3S

> <PUBCHEM_MOLECULAR_WEIGHT>
425.5

> <PUBCHEM_OPENEYE_CAN_SMILES>
C1CC1C(=O)NC2=NN3C(=N2)C=CC=C3C4=CC=C(C=C4)CN5CCS(=O)(=O)CC5

> <PUBCHEM_OPENEYE_ISO_SMILES>
C1CC1C(=O)NC2=NN3C(=N2)C=CC=C3C4=CC=C(C=C4)CN5CCS(=O)(=O)CC5

> <PUBCHEM_CACTVS_TPSA>
105

> <PUBCHEM_MONOISOTOPIC_WEIGHT>
425.15216079

> <PUBCHEM_TOTAL_CHARGE>
0

> <PUBCHEM_HEAVY_ATOM_COUNT>
30

> <PUBCHEM_ATOM_DEF_STEREO_COUNT>
0

> <PUBCHEM_ATOM_UDEF_STEREO_COUNT>
0

> <PUBCHEM_BOND_DEF_STEREO_COUNT>
0

> <PUBCHEM_BOND_UDEF_STEREO_COUNT>
0

> <PUBCHEM_ISOTOPIC_ATOM_COUNT>
0

> <PUBCHEM_COMPONENT_COUNT>
1

> <PUBCHEM_CACTVS_TAUTO_COUNT>
-1

> <PUBCHEM_COORDINATE_TYPE>
1
5
255

> <PUBCHEM_BONDANNOTATIONS>
19  21  8
19  22  8
21  25  8
22  26  8
23  25  8
23  26  8
24  28  8
27  29  8
28  30  8
29  30  8
7  24  8
7  27  8
7  8  8
8  20  8
9  20  8
9  27  8

$$$$
56669626
  -OEChem-11282412102D

 77 79  0     0  0  0  0  0  0999 V2000
    0.6200    3.6200    0.0000 Cl  0  0  0  0  0  0  0  0  0  0  0  0
    4.0841    3.6200    0.0000 Cl  0  0  0  0  0  0  0  0  0  0  0  0
    7.0737   12.9610    0.0000 P   0  0  0  0  0  0  0  0  0  0  0  0
    4.0841    4.6200    0.0000 O   0  0  0  0  0  0  0  0  0  0  0  0
    4.0841    1.6200    0.0000 O   0  0  0  0  0  0  0  0  0  0  0  0
    0.6200    1.6200    0.0000 O   0  0  0  0  0  0  0  0  0  0  0  0
    7.9397   13.4610    0.0000 O   0  0  0  0  0  0  0  0  0  0  0  0
    6.2076   12.4610    0.0000 O   0  0  0  0  0  0  0  0  0  0  0  0
    6.5737   13.8270    0.0000 O   0  0  0  0  0  0  0  0  0  0  0  0
    7.5737   12.0949    0.0000 O   0  0  0  0  0  0  0  0  0  0  0  0
   11.8783    9.1200    0.0000 N   0  0  0  0  0  0  0  0  0  0  0  0
   10.1463    8.1200    0.0000 N   0  0  0  0  0  0  0  0  0  0  0  0
    6.6822    6.1200    0.0000 N   0  0  0  0  0  0  0  0  0  0  0  0
    5.8162    7.6200    0.0000 N   0  0  0  0  0  0  0  0  0  0  0  0
    3.2181    6.1200    0.0000 N   0  0  0  0  0  0  0  0  0  0  0  0
    4.0841    7.6200    0.0000 N   0  0  0  0  0  0  0  0  0  0  0  0
    2.3521    4.6200    0.0000 N   0  0  0  0  0  0  0  0  0  0  0  0
   11.8783    8.1200    0.0000 C   0  0  0  0  0  0  0  0  0  0  0  0
   11.0123    9.6200    0.0000 C   0  0  0  0  0  0  0  0  0  0  0  0
   11.0123    7.6200    0.0000 C   0  0  0  0  0  0  0  0  0  0  0  0
   10.1463    9.1200    0.0000 C   0  0  0  0  0  0  0  0  0  0  0  0
   12.7444    9.6200    0.0000 C   0  0  0  0  0  0  0  0  0  0  0  0
    9.2802    7.6200    0.0000 C   0  0  0  0  0  0  0  0  0  0  0  0
   13.6104    9.1200    0.0000 C   0  0  0  0  0  0  0  0  0  0  0  0
    9.2802    6.6200    0.0000 C   0  0  0  0  0  0  0  0  0  0  0  0
    8.4142    8.1200    0.0000 C   0  0  0  0  0  0  0  0  0  0  0  0
    8.4142    6.1200    0.0000 C   0  0  0  0  0  0  0  0  0  0  0  0
    7.5482    7.6200    0.0000 C   0  0  0  0  0  0  0  0  0  0  0  0
    7.5482    6.6200    0.0000 C   0  0  0  0  0  0  0  0  0  0  0  0
    5.8162    6.6200    0.0000 C   0  0  0  0  0  0  0  0  0  0  0  0
    4.9501    6.1200    0.0000 C   0  0  0  0  0  0  0  0  0  0  0  0
    4.0841    6.6200    0.0000 C   0  0  0  0  0  0  0  0  0  0  0  0
    4.9501    8.1200    0.0000 C   0  0  0  0  0  0  0  0  0  0  0  0
    3.2181    5.1200    0.0000 C   0  0  0  0  0  0  0  0  0  0  0  0
    2.3521    6.6200    0.0000 C   0  0  0  0  0  0  0  0  0  0  0  0
    2.3521    3.6200    0.0000 C   0  0  0  0  0  0  0  0  0  0  0  0
    1.4860    3.1200    0.0000 C   0  0  0  0  0  0  0  0  0  0  0  0
    3.2181    3.1200    0.0000 C   0  0  0  0  0  0  0  0  0  0  0  0
    3.2181    2.1200    0.0000 C   0  0  0  0  0  0  0  0  0  0  0  0
    1.4860    2.1200    0.0000 C   0  0  0  0  0  0  0  0  0  0  0  0
    2.3521    1.6200    0.0000 C   0  0  0  0  0  0  0  0  0  0  0  0
    4.0841    0.6200    0.0000 C   0  0  0  0  0  0  0  0  0  0  0  0
    0.6200    0.6200    0.0000 C   0  0  0  0  0  0  0  0  0  0  0  0
   12.0904    7.5374    0.0000 H   0  0  0  0  0  0  0  0  0  0  0  0
   12.4889    8.2277    0.0000 H   0  0  0  0  0  0  0  0  0  0  0  0
   11.4108   10.0949    0.0000 H   0  0  0  0  0  0  0  0  0  0  0  0
   10.6138   10.0949    0.0000 H   0  0  0  0  0  0  0  0  0  0  0  0
   10.6138    7.1450    0.0000 H   0  0  0  0  0  0  0  0  0  0  0  0
   11.4108    7.1450    0.0000 H   0  0  0  0  0  0  0  0  0  0  0  0
    9.9342    9.7026    0.0000 H   0  0  0  0  0  0  0  0  0  0  0  0
    9.5357    9.0123    0.0000 H   0  0  0  0  0  0  0  0  0  0  0  0
   13.1429   10.0949    0.0000 H   0  0  0  0  0  0  0  0  0  0  0  0
   12.3458   10.0949    0.0000 H   0  0  0  0  0  0  0  0  0  0  0  0
   13.3004    8.5831    0.0000 H   0  0  0  0  0  0  0  0  0  0  0  0
   14.1473    8.8100    0.0000 H   0  0  0  0  0  0  0  0  0  0  0  0
   13.9204    9.6569    0.0000 H   0  0  0  0  0  0  0  0  0  0  0  0
    9.8172    6.3100    0.0000 H   0  0  0  0  0  0  0  0  0  0  0  0
    8.4142    8.7400    0.0000 H   0  0  0  0  0  0  0  0  0  0  0  0
    8.4142    5.5000    0.0000 H   0  0  0  0  0  0  0  0  0  0  0  0
    7.0113    7.9300    0.0000 H   0  0  0  0  0  0  0  0  0  0  0  0
    6.6822    5.5000    0.0000 H   0  0  0  0  0  0  0  0  0  0  0  0
    4.9501    5.5000    0.0000 H   0  0  0  0  0  0  0  0  0  0  0  0
    4.9501    8.7400    0.0000 H   0  0  0  0  0  0  0  0  0  0  0  0
    2.6620    7.1569    0.0000 H   0  0  0  0  0  0  0  0  0  0  0  0
    1.8151    6.9300    0.0000 H   0  0  0  0  0  0  0  0  0  0  0  0
    2.0420    6.0831    0.0000 H   0  0  0  0  0  0  0  0  0  0  0  0
    1.8151    4.9300    0.0000 H   0  0  0  0  0  0  0  0  0  0  0  0
    2.3521    1.0000    0.0000 H   0  0  0  0  0  0  0  0  0  0  0  0
    3.4641    0.6200    0.0000 H   0  0  0  0  0  0  0  0  0  0  0  0
    4.0841    0.0000    0.0000 H   0  0  0  0  0  0  0  0  0  0  0  0
    4.7041    0.6200    0.0000 H   0  0  0  0  0  0  0  0  0  0  0  0
    0.0000    0.6200    0.0000 H   0  0  0  0  0  0  0  0  0  0  0  0
    0.6200    0.0000    0.0000 H   0  0  0  0  0  0  0  0  0  0  0  0
    1.2400    0.6200    0.0000 H   0  0  0  0  0  0  0  0  0  0  0  0
    8.4766   13.1510    0.0000 H   0  0  0  0  0  0  0  0  0  0  0  0
    5.6707   12.7710    0.0000 H   0  0  0  0  0  0  0  0  0  0  0  0
    6.8837   14.3639    0.0000 H   0  0  0  0  0  0  0  0  0  0  0  0
  1 37  1  0  0  0  0
  2 38  1  0  0  0  0
  3  7  1  0  0  0  0
  3  8  1  0  0  0  0
  3  9  1  0  0  0  0
  3 10  2  0  0  0  0
  4 34  2  0  0  0  0
  5 39  1  0  0  0  0
  5 42  1  0  0  0  0
  6 40  1  0  0  0  0
  6 43  1  0  0  0  0
  7 75  1  0  0  0  0
  8 76  1  0  0  0  0
  9 77  1  0  0  0  0
 11 18  1  0  0  0  0
 11 19  1  0  0  0  0
 11 22  1  0  0  0  0
 12 20  1  0  0  0  0
 12 21  1  0  0  0  0
 12 23  1  0  0  0  0
 13 29  1  0  0  0  0
 13 30  1  0  0  0  0
 13 61  1  0  0  0  0
 14 30  1  0  0  0  0
 14 33  2  0  0  0  0
 15 32  1  0  0  0  0
 15 34  1  0  0  0  0
 15 35  1  0  0  0  0
 16 32  2  0  0  0  0
 16 33  1  0  0  0  0
 17 34  1  0  0  0  0
 17 36  1  0  0  0  0
 17 67  1  0  0  0  0
 18 20  1  0  0  0  0
 18 44  1  0  0  0  0
 18 45  1  0  0  0  0
 19 21  1  0  0  0  0
 19 46  1  0  0  0  0
 19 47  1  0  0  0  0
 20 48  1  0  0  0  0
 20 49  1  0  0  0  0
 21 50  1  0  0  0  0
 21 51  1  0  0  0  0
 22 24  1  0  0  0  0
 22 52  1  0  0  0  0
 22 53  1  0  0  0  0
 23 25  2  0  0  0  0
 23 26  1  0  0  0  0
 24 54  1  0  0  0  0
 24 55  1  0  0  0  0
 24 56  1  0  0  0  0
 25 27  1  0  0  0  0
 25 57  1  0  0  0  0
 26 28  2  0  0  0  0
 26 58  1  0  0  0  0
 27 29  2  0  0  0  0
 27 59  1  0  0  0  0
 28 29  1  0  0  0  0
 28 60  1  0  0  0  0
 30 31  2  0  0  0  0
 31 32  1  0  0  0  0
 31 62  1  0  0  0  0
 33 63  1  0  0  0  0
 35 64  1  0  0  0  0
 35 65  1  0  0  0  0
 35 66  1  0  0  0  0
 36 37  2  0  0  0  0
 36 38  1  0  0  0  0
 37 40  1  0  0  0  0
 38 39  2  0  0  0  0
 39 41  1  0  0  0  0
 40 41  2  0  0  0  0
 41 68  1  0  0  0  0
 42 69  1  0  0  0  0
 42 70  1  0  0  0  0
 42 71  1  0  0  0  0
 43 72  1  0  0  0  0
 43 73  1  0  0  0  0
 43 74  1  0  0  0  0
M  END
> <PUBCHEM_COMPOUND_CID>
56669626

> <PUBCHEM_COMPOUND_CANONICALIZED>
1

> <PUBCHEM_CACTVS_COMPLEXITY>
773

> <PUBCHEM_CACTVS_HBOND_ACCEPTOR>
12

> <PUBCHEM_CACTVS_HBOND_DONOR>
5

> <PUBCHEM_CACTVS_ROTATABLE_BOND>
8

> <PUBCHEM_CACTVS_SUBSKEYS>
AAADcfB7uAIGAAAAAAAAAAAAAAAAAAAAAAA8eIEAAAAAAAAB0AAAHgIQCCAACA7BkiY39pfIFBCoQCZjdICCiCkxJuAJ2CA+b5iMb2PF+9vUNChv1x/I6CeQcA8AACCACgCACBAAQQAUAQAQIAAAAAAAAA==

> <PUBCHEM_IUPAC_OPENEYE_NAME>
3-(2,6-dichloro-3,5-dimethoxy-phenyl)-1-[6-[4-(4-ethylpiperazin-1-yl)anilino]pyrimidin-4-yl]-1-methyl-urea;phosphoric acid

> <PUBCHEM_IUPAC_CAS_NAME>
3-(2,6-dichloro-3,5-dimethoxyphenyl)-1-[6-[4-(4-ethyl-1-piperazinyl)anilino]-4-pyrimidinyl]-1-methylurea;phosphoric acid

> <PUBCHEM_IUPAC_NAME_MARKUP>
3-(2,6-dichloro-3,5-dimethoxyphenyl)-1-[6-[4-(4-ethylpiperazin-1-yl)anilino]pyrimidin-4-yl]-1-methylurea;phosphoric acid

> <PUBCHEM_IUPAC_NAME>
3-(2,6-dichloro-3,5-dimethoxyphenyl)-1-[6-[4-(4-ethylpiperazin-1-yl)anilino]pyrimidin-4-yl]-1-methylurea;phosphoric acid

> <PUBCHEM_IUPAC_SYSTEMATIC_NAME>
3-[2,6-bis(chloranyl)-3,5-dimethoxy-phenyl]-1-[6-[[4-(4-ethylpiperazin-1-yl)phenyl]amino]pyrimidin-4-yl]-1-methyl-urea;phosphoric acid

> <PUBCHEM_IUPAC_TRADITIONAL_NAME>
3-(2,6-dichloro-3,5-dimethoxy-phenyl)-1-[6-[4-(4-ethylpiperazino)anilino]pyrimidin-4-yl]-1-methyl-urea;phosphoric acid

> <PUBCHEM_IUPAC_INCHI>
InChI=1S/C26H31Cl2N7O3.H3O4P/c1-5-34-10-12-35(13-11-34)18-8-6-17(7-9-18)31-21-15-22(30-16-29-21)33(2)26(36)32-25-23(27)19(37-3)14-20(38-4)24(25)28;1-5(2,3)4/h6-9,14-16H,5,10-13H2,1-4H3,(H,32,36)(H,29,30,31);(H3,1,2,3,4)

> <PUBCHEM_IUPAC_INCHIKEY>
GUQNHCGYHLSITB-UHFFFAOYSA-N

> <PUBCHEM_EXACT_MASS>
657.1634388

> <PUBCHEM_MOLECULAR_FORMULA>
C26H34Cl2N7O7P

> <PUBCHEM_MOLECULAR_WEIGHT>
658.5

> <PUBCHEM_OPENEYE_CAN_SMILES>
CCN1CCN(CC1)C2=CC=C(C=C2)NC3=CC(=NC=N3)N(C)C(=O)NC4=C(C(=CC(=C4Cl)OC)OC)Cl.OP(=O)(O)O

> <PUBCHEM_OPENEYE_ISO_SMILES>
CCN1CCN(CC1)C2=CC=C(C=C2)NC3=CC(=NC=N3)N(C)C(=O)NC4=C(C(=CC(=C4Cl)OC)OC)Cl.OP(=O)(O)O

> <PUBCHEM_CACTVS_TPSA>
173

> <PUBCHEM_MONOISOTOPIC_WEIGHT>
657.1634388

> <PUBCHEM_TOTAL_CHARGE>
0

> <PUBCHEM_HEAVY_ATOM_COUNT>
43

> <PUBCHEM_ATOM_DEF_STEREO_COUNT>
0

> <PUBCHEM_ATOM_UDEF_STEREO_COUNT>
0

> <PUBCHEM_BOND_DEF_STEREO_COUNT>
0

> <PUBCHEM_BOND_UDEF_STEREO_COUNT>
0

> <PUBCHEM_ISOTOPIC_ATOM_COUNT>
0

> <PUBCHEM_COMPONENT_COUNT>
2

> <PUBCHEM_CACTVS_TAUTO_COUNT>
-1

> <PUBCHEM_COORDINATE_TYPE>
1
5
255

> <PUBCHEM_BONDANNOTATIONS>
14  30  8
14  33  8
16  32  8
16  33  8
23  25  8
23  26  8
25  27  8
26  28  8
27  29  8
28  29  8
30  31  8
31  32  8
36  37  8
36  38  8
37  40  8
38  39  8
39  41  8
40  41  8

$$$$
68289010
  -OEChem-11282412102D

 41 45  0     1  0  0  0  0  0999 V2000
    8.1215   -0.6837    0.0000 N   0  0  0  0  0  0  0  0  0  0  0  0
   10.6998    1.6297    0.0000 N   0  0  0  0  0  0  0  0  0  0  0  0
    8.7051   -1.4885    0.0000 N   0  0  0  0  0  0  0  0  0  0  0  0
    6.3092   -0.4885    0.0000 N   0  0  0  0  0  0  0  0  0  0  0  0
    8.1215   -2.2932    0.0000 N   0  0  0  0  0  0  0  0  0  0  0  0
   12.2755    1.2906    0.0000 N   0  0  0  0  0  0  0  0  0  0  0  0
    6.3092   -2.4885    0.0000 N   0  0  0  0  0  0  0  0  0  0  0  0
    2.9945   -0.1521    0.0000 N   0  0  0  0  0  0  0  0  0  0  0  0
    3.4945    0.7140    0.0000 N   0  0  0  0  0  0  0  0  0  0  0  0
    8.4322    0.2668    0.0000 C   0  0  2  0  0  0  0  0  0  0  0  0
    9.4107    0.4730    0.0000 C   0  0  0  0  0  0  0  0  0  0  0  0
    7.7643    1.0111    0.0000 C   0  0  0  0  0  0  0  0  0  0  0  0
    7.1753   -0.9885    0.0000 C   0  0  0  0  0  0  0  0  0  0  0  0
    9.7213    1.4235    0.0000 C   0  0  0  0  0  0  0  0  0  0  0  0
   10.0785   -0.2713    0.0000 C   0  0  0  0  0  0  0  0  0  0  0  0
   11.3677    0.8854    0.0000 C   0  0  0  0  0  0  0  0  0  0  0  0
    7.1753   -1.9885    0.0000 C   0  0  0  0  0  0  0  0  0  0  0  0
   11.0570   -0.0651    0.0000 C   0  0  0  0  0  0  0  0  0  0  0  0
    5.4432   -0.9885    0.0000 C   0  0  0  0  0  0  0  0  0  0  0  0
   11.2006    2.4885    0.0000 C   0  0  0  0  0  0  0  0  0  0  0  0
    4.5772   -0.4885    0.0000 C   0  0  0  0  0  0  0  0  0  0  0  0
    5.4432   -1.9885    0.0000 C   0  0  0  0  0  0  0  0  0  0  0  0
   12.1724    2.2793    0.0000 C   0  0  0  0  0  0  0  0  0  0  0  0
    3.6636   -0.8952    0.0000 C   0  0  0  0  0  0  0  0  0  0  0  0
    4.4727    0.5060    0.0000 C   0  0  0  0  0  0  0  0  0  0  0  0
    2.0000   -0.2566    0.0000 C   0  0  0  0  0  0  0  0  0  0  0  0
    7.8255    0.1389    0.0000 H   0  0  0  0  0  0  0  0  0  0  0  0
    8.2258    1.4251    0.0000 H   0  0  0  0  0  0  0  0  0  0  0  0
    7.3502    1.4726    0.0000 H   0  0  0  0  0  0  0  0  0  0  0  0
    7.3028    0.5970    0.0000 H   0  0  0  0  0  0  0  0  0  0  0  0
    9.3073    1.8850    0.0000 H   0  0  0  0  0  0  0  0  0  0  0  0
    9.8859   -0.8606    0.0000 H   0  0  0  0  0  0  0  0  0  0  0  0
   11.4711   -0.5266    0.0000 H   0  0  0  0  0  0  0  0  0  0  0  0
   10.9504    3.0557    0.0000 H   0  0  0  0  0  0  0  0  0  0  0  0
    4.9063   -2.2985    0.0000 H   0  0  0  0  0  0  0  0  0  0  0  0
   12.6339    2.6933    0.0000 H   0  0  0  0  0  0  0  0  0  0  0  0
    3.5348   -1.5017    0.0000 H   0  0  0  0  0  0  0  0  0  0  0  0
    4.9334    0.9209    0.0000 H   0  0  0  0  0  0  0  0  0  0  0  0
    1.9352    0.3600    0.0000 H   0  0  0  0  0  0  0  0  0  0  0  0
    1.3834   -0.3214    0.0000 H   0  0  0  0  0  0  0  0  0  0  0  0
    2.0648   -0.8732    0.0000 H   0  0  0  0  0  0  0  0  0  0  0  0
  1  3  1  0  0  0  0
  1 10  1  0  0  0  0
  1 13  1  0  0  0  0
  2 14  1  0  0  0  0
  2 16  1  0  0  0  0
  2 20  1  0  0  0  0
  3  5  2  0  0  0  0
  4 13  2  0  0  0  0
  4 19  1  0  0  0  0
  5 17  1  0  0  0  0
  6 16  2  0  0  0  0
  6 23  1  0  0  0  0
  7 17  2  0  0  0  0
  7 22  1  0  0  0  0
  8  9  1  0  0  0  0
  8 24  1  0  0  0  0
  8 26  1  0  0  0  0
  9 25  2  0  0  0  0
 10 11  1  0  0  0  0
 10 12  1  1  0  0  0
 10 27  1  0  0  0  0
 11 14  2  0  0  0  0
 11 15  1  0  0  0  0
 12 28  1  0  0  0  0
 12 29  1  0  0  0  0
 12 30  1  0  0  0  0
 13 17  1  0  0  0  0
 14 31  1  0  0  0  0
 15 18  2  0  0  0  0
 15 32  1  0  0  0  0
 16 18  1  0  0  0  0
 18 33  1  0  0  0  0
 19 21  1  0  0  0  0
 19 22  2  0  0  0  0
 20 23  2  0  0  0  0
 20 34  1  0  0  0  0
 21 24  2  0  0  0  0
 21 25  1  0  0  0  0
 22 35  1  0  0  0  0
 23 36  1  0  0  0  0
 24 37  1  0  0  0  0
 25 38  1  0  0  0  0
 26 39  1  0  0  0  0
 26 40  1  0  0  0  0
 26 41  1  0  0  0  0
M  END
> <PUBCHEM_COMPOUND_CID>
68289010

> <PUBCHEM_COMPOUND_CANONICALIZED>
1

> <PUBCHEM_CACTVS_COMPLEXITY>
505

> <PUBCHEM_CACTVS_HBOND_ACCEPTOR>
6

> <PUBCHEM_CACTVS_HBOND_DONOR>
0

> <PUBCHEM_CACTVS_ROTATABLE_BOND>
3

> <PUBCHEM_CACTVS_SUBSKEYS>
AAADccB7wAAAAAAAAAAAAAAAAAAAAWLFgAAsWAAAAAAAAFgB/gAAHAAIAAAADCjBHwQ/sJ8MGACiAzZnZACShC8xkqAd2CA4dJiIaOLA2dGUpAhoiALIyCcQAAAOAAAAAAAAAAAAAAAAAAAAAAAAAAAAAA==

> <PUBCHEM_IUPAC_OPENEYE_NAME>
3-[(1S)-1-imidazo[1,2-a]pyridin-6-ylethyl]-5-(1-methylpyrazol-4-yl)triazolo[4,5-b]pyrazine

> <PUBCHEM_IUPAC_CAS_NAME>
3-[(1S)-1-(6-imidazo[1,2-a]pyridinyl)ethyl]-5-(1-methyl-4-pyrazolyl)triazolo[4,5-b]pyrazine

> <PUBCHEM_IUPAC_NAME_MARKUP>
3-[(1<I>S</I>)-1-imidazo[1,2-a]pyridin-6-ylethyl]-5-(1-methylpyrazol-4-yl)triazolo[4,5-b]pyrazine

> <PUBCHEM_IUPAC_NAME>
3-[(1S)-1-imidazo[1,2-a]pyridin-6-ylethyl]-5-(1-methylpyrazol-4-yl)triazolo[4,5-b]pyrazine

> <PUBCHEM_IUPAC_SYSTEMATIC_NAME>
3-[(1S)-1-imidazo[1,2-a]pyridin-6-ylethyl]-5-(1-methylpyrazol-4-yl)-[1,2,3]triazolo[4,5-b]pyrazine

> <PUBCHEM_IUPAC_TRADITIONAL_NAME>
3-[(1S)-1-imidazo[1,2-a]pyridin-6-ylethyl]-5-(1-methylpyrazol-4-yl)triazolo[4,5-b]pyrazine

> <PUBCHEM_IUPAC_INCHI>
InChI=1S/C17H15N9/c1-11(12-3-4-15-18-5-6-25(15)10-12)26-17-16(22-23-26)19-8-14(21-17)13-7-20-24(2)9-13/h3-11H,1-2H3/t11-/m0/s1

> <PUBCHEM_IUPAC_INCHIKEY>
XYDNMOZJKOGZLS-NSHDSACASA-N

> <PUBCHEM_XLOGP3_AA>
1.5

> <PUBCHEM_EXACT_MASS>
345.14504152

> <PUBCHEM_MOLECULAR_FORMULA>
C17H15N9

> <PUBCHEM_MOLECULAR_WEIGHT>
345.4

> <PUBCHEM_OPENEYE_CAN_SMILES>
CC(C1=CN2C=CN=C2C=C1)N3C4=NC(=CN=C4N=N3)C5=CN(N=C5)C

> <PUBCHEM_OPENEYE_ISO_SMILES>
C[C@@H](C1=CN2C=CN=C2C=C1)N3C4=NC(=CN=C4N=N3)C5=CN(N=C5)C

> <PUBCHEM_CACTVS_TPSA>
91.6

> <PUBCHEM_MONOISOTOPIC_WEIGHT>
345.14504152

> <PUBCHEM_TOTAL_CHARGE>
0

> <PUBCHEM_HEAVY_ATOM_COUNT>
26

> <PUBCHEM_ATOM_DEF_STEREO_COUNT>
1

> <PUBCHEM_ATOM_UDEF_STEREO_COUNT>
0

> <PUBCHEM_BOND_DEF_STEREO_COUNT>
0

> <PUBCHEM_BOND_UDEF_STEREO_COUNT>
0

> <PUBCHEM_ISOTOPIC_ATOM_COUNT>
0

> <PUBCHEM_COMPONENT_COUNT>
1

> <PUBCHEM_CACTVS_TAUTO_COUNT>
-1

> <PUBCHEM_COORDINATE_TYPE>
1
5
255

> <PUBCHEM_BONDANNOTATIONS>
1  13  8
1  3  8
10  12  5
11  14  8
11  15  8
13  17  8
15  18  8
16  18  8
19  22  8
2  14  8
2  16  8
2  20  8
20  23  8
21  24  8
21  25  8
3  5  8
4  13  8
4  19  8
5  17  8
6  16  8
6  23  8
7  17  8
7  22  8
8  24  8
8  9  8
9  25  8

$$$$
72710866
  -OEChem-11282412102D

 97 99  0     1  0  0  0  0  0999 V2000
   12.4927    5.1116    0.0000 Cl  0  0  0  0  0  0  0  0  0  0  0  0
    4.6823    2.5369    0.0000 O   0  0  0  0  0  0  0  0  0  0  0  0
    5.5484    2.0369    0.0000 O   0  0  0  0  0  0  0  0  0  0  0  0
   12.4696    7.1114    0.0000 O   0  0  0  0  0  0  0  0  0  0  0  0
    6.3317   15.3782    0.0000 O   0  0  0  0  0  0  0  0  0  0  0  0
    9.7958   13.3782    0.0000 O   0  0  0  0  0  0  0  0  0  0  0  0
    9.7958   18.6251    0.0000 O   0  0  0  0  0  0  0  0  0  0  0  0
    6.3317   20.6251    0.0000 O   0  0  0  0  0  0  0  0  0  0  0  0
    7.1978   13.8782    0.0000 O   0  0  0  0  0  0  0  0  0  0  0  0
    8.0638   13.3782    0.0000 O   0  0  0  0  0  0  0  0  0  0  0  0
    8.0638   18.6251    0.0000 O   0  0  0  0  0  0  0  0  0  0  0  0
    7.1978   19.1251    0.0000 O   0  0  0  0  0  0  0  0  0  0  0  0
    1.1707    3.6302    0.0000 N   0  0  3  0  0  0  0  0  0  0  0  0
    5.5484    4.0369    0.0000 N   0  0  0  0  0  0  0  0  0  0  0  0
    9.0288    5.0715    0.0000 N   0  0  0  0  0  0  0  0  0  0  0  0
    9.0404    2.0023    0.0000 N   0  0  0  0  0  0  0  0  0  0  0  0
   11.6746    4.5644    0.0000 N   0  0  0  0  0  0  0  0  0  0  0  0
   14.1899    8.1314    0.0000 N   0  0  0  0  0  0  0  0  0  0  0  0
    2.0843    4.0369    0.0000 C   0  0  2  0  0  0  0  0  0  0  0  0
    1.9797    5.0315    0.0000 C   0  0  0  0  0  0  0  0  0  0  0  0
    1.0016    5.2394    0.0000 C   0  0  0  0  0  0  0  0  0  0  0  0
    0.5016    4.3733    0.0000 C   0  0  0  0  0  0  0  0  0  0  0  0
    2.9503    3.5369    0.0000 C   0  0  0  0  0  0  0  0  0  0  0  0
    0.9628    2.6520    0.0000 C   0  0  0  0  0  0  0  0  0  0  0  0
    3.8163    4.0369    0.0000 C   0  0  0  0  0  0  0  0  0  0  0  0
    4.6823    3.5369    0.0000 C   0  0  0  0  0  0  0  0  0  0  0  0
    6.4144    3.5369    0.0000 C   0  0  0  0  0  0  0  0  0  0  0  0
    7.2804    4.0369    0.0000 C   0  0  0  0  0  0  0  0  0  0  0  0
    6.4144    2.5369    0.0000 C   0  0  0  0  0  0  0  0  0  0  0  0
    8.1464    3.5369    0.0000 C   0  0  0  0  0  0  0  0  0  0  0  0
    8.1464    2.5369    0.0000 C   0  0  0  0  0  0  0  0  0  0  0  0
    7.2804    2.0369    0.0000 C   0  0  0  0  0  0  0  0  0  0  0  0
    9.0404    4.0716    0.0000 C   0  0  0  0  0  0  0  0  0  0  0  0
    9.9464    3.5578    0.0000 C   0  0  0  0  0  0  0  0  0  0  0  0
    9.9464    2.5161    0.0000 C   0  0  0  0  0  0  0  0  0  0  0  0
    5.5484    1.0369    0.0000 C   0  0  0  0  0  0  0  0  0  0  0  0
    9.8890    5.5815    0.0000 C   0  0  0  0  0  0  0  0  0  0  0  0
    4.6823    0.5369    0.0000 C   0  0  0  0  0  0  0  0  0  0  0  0
   10.7608    5.0916    0.0000 C   0  0  0  0  0  0  0  0  0  0  0  0
    9.8774    6.5814    0.0000 C   0  0  0  0  0  0  0  0  0  0  0  0
   10.8105    4.0611    0.0000 C   0  0  0  0  0  0  0  0  0  0  0  0
   11.6209    5.6015    0.0000 C   0  0  0  0  0  0  0  0  0  0  0  0
   10.7376    7.0914    0.0000 C   0  0  0  0  0  0  0  0  0  0  0  0
   11.6094    6.6015    0.0000 C   0  0  0  0  0  0  0  0  0  0  0  0
   12.4580    8.1114    0.0000 C   0  0  0  0  0  0  0  0  0  0  0  0
   13.3182    8.6214    0.0000 C   0  0  0  0  0  0  0  0  0  0  0  0
   13.3066    9.6213    0.0000 C   0  0  0  0  0  0  0  0  0  0  0  0
   14.1668   10.1313    0.0000 C   0  0  0  0  0  0  0  0  0  0  0  0
   15.0501    8.6414    0.0000 C   0  0  0  0  0  0  0  0  0  0  0  0
   15.0386    9.6413    0.0000 C   0  0  0  0  0  0  0  0  0  0  0  0
    8.0638   15.3782    0.0000 C   0  0  0  0  0  0  0  0  0  0  0  0
    8.9298   14.8782    0.0000 C   0  0  0  0  0  0  0  0  0  0  0  0
    8.9298   20.1251    0.0000 C   0  0  0  0  0  0  0  0  0  0  0  0
    8.0638   20.6251    0.0000 C   0  0  0  0  0  0  0  0  0  0  0  0
    7.1978   14.8782    0.0000 C   0  0  0  0  0  0  0  0  0  0  0  0
    8.9298   13.8782    0.0000 C   0  0  0  0  0  0  0  0  0  0  0  0
    8.9298   19.1251    0.0000 C   0  0  0  0  0  0  0  0  0  0  0  0
    7.1978   20.1251    0.0000 C   0  0  0  0  0  0  0  0  0  0  0  0
    2.0518    3.4178    0.0000 H   0  0  0  0  0  0  0  0  0  0  0  0
    2.5997    5.0315    0.0000 H   0  0  0  0  0  0  0  0  0  0  0  0
    2.0446    5.6481    0.0000 H   0  0  0  0  0  0  0  0  0  0  0  0
    1.1932    5.8290    0.0000 H   0  0  0  0  0  0  0  0  0  0  0  0
    0.4352    5.4916    0.0000 H   0  0  0  0  0  0  0  0  0  0  0  0
    0.0000    4.7378    0.0000 H   0  0  0  0  0  0  0  0  0  0  0  0
    0.0867    3.9126    0.0000 H   0  0  0  0  0  0  0  0  0  0  0  0
    2.9503    2.9169    0.0000 H   0  0  0  0  0  0  0  0  0  0  0  0
    0.3564    2.7810    0.0000 H   0  0  0  0  0  0  0  0  0  0  0  0
    0.8339    2.0456    0.0000 H   0  0  0  0  0  0  0  0  0  0  0  0
    1.5693    2.5231    0.0000 H   0  0  0  0  0  0  0  0  0  0  0  0
    3.8163    4.6569    0.0000 H   0  0  0  0  0  0  0  0  0  0  0  0
    5.5484    4.6569    0.0000 H   0  0  0  0  0  0  0  0  0  0  0  0
    7.2804    4.6569    0.0000 H   0  0  0  0  0  0  0  0  0  0  0  0
    7.2804    1.4169    0.0000 H   0  0  0  0  0  0  0  0  0  0  0  0
    8.4883    5.3753    0.0000 H   0  0  0  0  0  0  0  0  0  0  0  0
   10.4822    2.2040    0.0000 H   0  0  0  0  0  0  0  0  0  0  0  0
    5.7604    0.4543    0.0000 H   0  0  0  0  0  0  0  0  0  0  0  0
    6.1590    1.1446    0.0000 H   0  0  0  0  0  0  0  0  0  0  0  0
    4.3723    1.0739    0.0000 H   0  0  0  0  0  0  0  0  0  0  0  0
    4.1454    0.2269    0.0000 H   0  0  0  0  0  0  0  0  0  0  0  0
    4.9923    0.0000    0.0000 H   0  0  0  0  0  0  0  0  0  0  0  0
   10.7679    4.4716    0.0000 H   0  0  0  0  0  0  0  0  0  0  0  0
    9.3370    6.8852    0.0000 H   0  0  0  0  0  0  0  0  0  0  0  0
   10.7305    7.7114    0.0000 H   0  0  0  0  0  0  0  0  0  0  0  0
   12.2392    8.6915    0.0000 H   0  0  0  0  0  0  0  0  0  0  0  0
   11.8487    7.9967    0.0000 H   0  0  0  0  0  0  0  0  0  0  0  0
   12.7661    9.9251    0.0000 H   0  0  0  0  0  0  0  0  0  0  0  0
   14.1596   10.7512    0.0000 H   0  0  0  0  0  0  0  0  0  0  0  0
   15.5906    8.3376    0.0000 H   0  0  0  0  0  0  0  0  0  0  0  0
   15.5719    9.9575    0.0000 H   0  0  0  0  0  0  0  0  0  0  0  0
    8.0638   15.9982    0.0000 H   0  0  0  0  0  0  0  0  0  0  0  0
    9.4667   15.1882    0.0000 H   0  0  0  0  0  0  0  0  0  0  0  0
    9.4667   20.4351    0.0000 H   0  0  0  0  0  0  0  0  0  0  0  0
    8.0638   21.2451    0.0000 H   0  0  0  0  0  0  0  0  0  0  0  0
    5.7948   15.0682    0.0000 H   0  0  0  0  0  0  0  0  0  0  0  0
    9.7958   12.7582    0.0000 H   0  0  0  0  0  0  0  0  0  0  0  0
    9.7958   18.0051    0.0000 H   0  0  0  0  0  0  0  0  0  0  0  0
    5.7948   20.3151    0.0000 H   0  0  0  0  0  0  0  0  0  0  0  0
  1 42  1  0  0  0  0
  2 26  2  0  0  0  0
  3 29  1  0  0  0  0
  3 36  1  0  0  0  0
  4 44  1  0  0  0  0
  4 45  1  0  0  0  0
  5 55  1  0  0  0  0
  5 94  1  0  0  0  0
  6 56  1  0  0  0  0
  6 95  1  0  0  0  0
  7 57  1  0  0  0  0
  7 96  1  0  0  0  0
  8 58  1  0  0  0  0
  8 97  1  0  0  0  0
  9 55  2  0  0  0  0
 10 56  2  0  0  0  0
 11 57  2  0  0  0  0
 12 58  2  0  0  0  0
 13 19  1  0  0  0  0
 13 22  1  0  0  0  0
 13 24  1  0  0  0  0
 14 26  1  0  0  0  0
 14 27  1  0  0  0  0
 14 71  1  0  0  0  0
 15 33  1  0  0  0  0
 15 37  1  0  0  0  0
 15 74  1  0  0  0  0
 16 31  1  0  0  0  0
 16 35  2  0  0  0  0
 17 41  3  0  0  0  0
 18 46  1  0  0  0  0
 18 49  2  0  0  0  0
 19 20  1  0  0  0  0
 19 23  1  6  0  0  0
 19 59  1  0  0  0  0
 20 21  1  0  0  0  0
 20 60  1  0  0  0  0
 20 61  1  0  0  0  0
 21 22  1  0  0  0  0
 21 62  1  0  0  0  0
 21 63  1  0  0  0  0
 22 64  1  0  0  0  0
 22 65  1  0  0  0  0
 23 25  2  0  0  0  0
 23 66  1  0  0  0  0
 24 67  1  0  0  0  0
 24 68  1  0  0  0  0
 24 69  1  0  0  0  0
 25 26  1  0  0  0  0
 25 70  1  0  0  0  0
 27 28  1  0  0  0  0
 27 29  2  0  0  0  0
 28 30  2  0  0  0  0
 28 72  1  0  0  0  0
 29 32  1  0  0  0  0
 30 31  1  0  0  0  0
 30 33  1  0  0  0  0
 31 32  2  0  0  0  0
 32 73  1  0  0  0  0
 33 34  2  0  0  0  0
 34 35  1  0  0  0  0
 34 41  1  0  0  0  0
 35 75  1  0  0  0  0
 36 38  1  0  0  0  0
 36 76  1  0  0  0  0
 36 77  1  0  0  0  0
 37 39  2  0  0  0  0
 37 40  1  0  0  0  0
 38 78  1  0  0  0  0
 38 79  1  0  0  0  0
 38 80  1  0  0  0  0
 39 42  1  0  0  0  0
 39 81  1  0  0  0  0
 40 43  2  0  0  0  0
 40 82  1  0  0  0  0
 42 44  2  0  0  0  0
 43 44  1  0  0  0  0
 43 83  1  0  0  0  0
 45 46  1  0  0  0  0
 45 84  1  0  0  0  0
 45 85  1  0  0  0  0
 46 47  2  0  0  0  0
 47 48  1  0  0  0  0
 47 86  1  0  0  0  0
 48 50  2  0  0  0  0
 48 87  1  0  0  0  0
 49 50  1  0  0  0  0
 49 88  1  0  0  0  0
 50 89  1  0  0  0  0
 51 52  2  0  0  0  0
 51 55  1  0  0  0  0
 51 90  1  0  0  0  0
 52 56  1  0  0  0  0
 52 91  1  0  0  0  0
 53 54  2  0  0  0  0
 53 57  1  0  0  0  0
 53 92  1  0  0  0  0
 54 58  1  0  0  0  0
 54 93  1  0  0  0  0
M  END
> <PUBCHEM_COMPOUND_CID>
72710866

> <PUBCHEM_COMPOUND_CANONICALIZED>
1

> <PUBCHEM_CACTVS_COMPLEXITY>
1080

> <PUBCHEM_CACTVS_HBOND_ACCEPTOR>
16

> <PUBCHEM_CACTVS_HBOND_DONOR>
6

> <PUBCHEM_CACTVS_ROTATABLE_BOND>
14

> <PUBCHEM_CACTVS_SUBSKEYS>
AAADcfB/vAAEAAAAAAAAAAAAAAAAAWAAAAA8eIEAAAAAAACx/AAAHgIQCAAADC7hniY+zvPIFgC4BzX3XASiiCAxJ2AI2CA/b9gOpuPF89uHPCjm1BnY+Y+w0OMOIECAQgICGABAgQCEBAQwAAAAAAAAAA==

> <PUBCHEM_IUPAC_OPENEYE_NAME>
(E)-N-[4-[3-chloro-4-(2-pyridylmethoxy)anilino]-3-cyano-7-ethoxy-6-quinolyl]-3-[(2R)-1-methylpyrrolidin-2-yl]prop-2-enamide;maleic acid

> <PUBCHEM_IUPAC_CAS_NAME>
(Z)-2-butenedioic acid;(E)-N-[4-[3-chloro-4-(2-pyridinylmethoxy)anilino]-3-cyano-7-ethoxy-6-quinolinyl]-3-[(2R)-1-methyl-2-pyrrolidinyl]-2-propenamide

> <PUBCHEM_IUPAC_NAME_MARKUP>
(<I>Z</I>)-but-2-enedioic acid;(<I>E</I>)-<I>N</I>-[4-[3-chloro-4-(pyridin-2-ylmethoxy)anilino]-3-cyano-7-ethoxyquinolin-6-yl]-3-[(2<I>R</I>)-1-methylpyrrolidin-2-yl]prop-2-enamide

> <PUBCHEM_IUPAC_NAME>
(Z)-but-2-enedioic acid;(E)-N-[4-[3-chloro-4-(pyridin-2-ylmethoxy)anilino]-3-cyano-7-ethoxyquinolin-6-yl]-3-[(2R)-1-methylpyrrolidin-2-yl]prop-2-enamide

> <PUBCHEM_IUPAC_SYSTEMATIC_NAME>
(Z)-but-2-enedioic acid;(E)-N-[4-[[3-chloranyl-4-(pyridin-2-ylmethoxy)phenyl]amino]-3-cyano-7-ethoxy-quinolin-6-yl]-3-[(2R)-1-methylpyrrolidin-2-yl]prop-2-enamide

> <PUBCHEM_IUPAC_TRADITIONAL_NAME>
(E)-N-[4-[3-chloro-4-(2-pyridylmethoxy)anilino]-3-cyano-7-ethoxy-6-quinolyl]-3-[(2R)-1-methylpyrrolidin-2-yl]acrylamide;maleic acid

> <PUBCHEM_IUPAC_INCHI>
InChI=1S/C32H31ClN6O3.2C4H4O4/c1-3-41-30-17-27-25(16-28(30)38-31(40)12-10-24-8-6-14-39(24)2)32(21(18-34)19-36-27)37-22-9-11-29(26(33)15-22)42-20-23-7-4-5-13-35-23;2*5-3(6)1-2-4(7)8/h4-5,7,9-13,15-17,19,24H,3,6,8,14,20H2,1-2H3,(H,36,37)(H,38,40);2*1-2H,(H,5,6)(H,7,8)/b12-10+;2*2-1-/t24-;;/m1../s1

> <PUBCHEM_IUPAC_INCHIKEY>
KLHFGQSCVQPTIN-XUZAKNADSA-N

> <PUBCHEM_EXACT_MASS>
814.2365338

> <PUBCHEM_MOLECULAR_FORMULA>
C40H39ClN6O11

> <PUBCHEM_MOLECULAR_WEIGHT>
815.2

> <PUBCHEM_OPENEYE_CAN_SMILES>
CCOC1=C(C=C2C(=C1)N=CC(=C2NC3=CC(=C(C=C3)OCC4=CC=CC=N4)Cl)C#N)NC(=O)C=CC5CCCN5C.C(=CC(=O)O)C(=O)O.C(=CC(=O)O)C(=O)O

> <PUBCHEM_OPENEYE_ISO_SMILES>
CCOC1=C(C=C2C(=C(C=NC2=C1)C#N)NC3=CC(=C(C=C3)OCC4=CC=CC=N4)Cl)NC(=O)/C=C/[C@@H]5N(CCC5)C.C(=C\C(=O)O)\C(=O)O.C(=C\C(=O)O)\C(=O)O

> <PUBCHEM_CACTVS_TPSA>
262

> <PUBCHEM_MONOISOTOPIC_WEIGHT>
814.2365338

> <PUBCHEM_TOTAL_CHARGE>
0

> <PUBCHEM_HEAVY_ATOM_COUNT>
58

> <PUBCHEM_ATOM_DEF_STEREO_COUNT>
1

> <PUBCHEM_ATOM_UDEF_STEREO_COUNT>
0

> <PUBCHEM_BOND_DEF_STEREO_COUNT>
3

> <PUBCHEM_BOND_UDEF_STEREO_COUNT>
0

> <PUBCHEM_ISOTOPIC_ATOM_COUNT>
0

> <PUBCHEM_COMPONENT_COUNT>
3

> <PUBCHEM_CACTVS_TAUTO_COUNT>
-1

> <PUBCHEM_COORDINATE_TYPE>
1
5
255

> <PUBCHEM_BONDANNOTATIONS>
16  31  8
16  35  8
18  46  8
18  49  8
19  23  6
27  28  8
27  29  8
28  30  8
29  32  8
30  31  8
30  33  8
31  32  8
33  34  8
34  35  8
37  39  8
37  40  8
39  42  8
40  43  8
42  44  8
43  44  8
46  47  8
47  48  8
48  50  8
49  50  8

$$$$
86280646
  -OEChem-11282412102D

 44 46  0     0  0  0  0  0  0999 V2000
    5.4641    1.5000    0.0000 S   0  0  0  0  0  0  0  0  0  0  0  0
    4.9641    2.3660    0.0000 O   0  0  0  0  0  0  0  0  0  0  0  0
    5.9641    0.6340    0.0000 O   0  0  0  0  0  0  0  0  0  0  0  0
    2.0000   -0.5000    0.0000 O   0  5  0  0  0  0  0  0  0  0  0  0
    2.8660    1.0000    0.0000 O   0  0  0  0  0  0  0  0  0  0  0  0
    9.7942    2.0000    0.0000 O   0  0  0  0  0  0  0  0  0  0  0  0
    8.9282    0.5000    0.0000 O   0  0  0  0  0  0  0  0  0  0  0  0
    4.5981    1.0000    0.0000 N   0  0  0  0  0  0  0  0  0  0  0  0
    2.8660    0.0000    0.0000 N   0  3  0  0  0  0  0  0  0  0  0  0
    8.0622   -2.0000    0.0000 N   0  0  0  0  0  0  0  0  0  0  0  0
    4.5981    0.0000    0.0000 C   0  0  0  0  0  0  0  0  0  0  0  0
    5.4641   -1.5000    0.0000 C   0  0  0  0  0  0  0  0  0  0  0  0
    4.5981   -2.0000    0.0000 C   0  0  0  0  0  0  0  0  0  0  0  0
    5.4641   -0.5000    0.0000 C   0  0  0  0  0  0  0  0  0  0  0  0
    3.7320   -0.5000    0.0000 C   0  0  0  0  0  0  0  0  0  0  0  0
    3.7320   -1.5000    0.0000 C   0  0  0  0  0  0  0  0  0  0  0  0
    6.3301    2.0000    0.0000 C   0  0  0  0  0  0  0  0  0  0  0  0
    6.3301   -2.0000    0.0000 C   0  0  0  0  0  0  0  0  0  0  0  0
    4.5981   -3.0000    0.0000 C   0  0  0  0  0  0  0  0  0  0  0  0
    7.1962    1.5000    0.0000 C   0  0  0  0  0  0  0  0  0  0  0  0
    6.3301    3.0000    0.0000 C   0  0  0  0  0  0  0  0  0  0  0  0
    8.0622    2.0000    0.0000 C   0  0  0  0  0  0  0  0  0  0  0  0
    6.3301   -3.0000    0.0000 C   0  0  0  0  0  0  0  0  0  0  0  0
    7.1962   -1.5000    0.0000 C   0  0  0  0  0  0  0  0  0  0  0  0
    7.1962    3.5000    0.0000 C   0  0  0  0  0  0  0  0  0  0  0  0
    8.0622    3.0000    0.0000 C   0  0  0  0  0  0  0  0  0  0  0  0
    7.1962   -3.5000    0.0000 C   0  0  0  0  0  0  0  0  0  0  0  0
    8.0622   -3.0000    0.0000 C   0  0  0  0  0  0  0  0  0  0  0  0
    8.9282    1.5000    0.0000 C   0  0  0  0  0  0  0  0  0  0  0  0
    6.0010   -0.1900    0.0000 H   0  0  0  0  0  0  0  0  0  0  0  0
    4.0611    1.3100    0.0000 H   0  0  0  0  0  0  0  0  0  0  0  0
    3.1951   -1.8100    0.0000 H   0  0  0  0  0  0  0  0  0  0  0  0
    3.9781   -3.0000    0.0000 H   0  0  0  0  0  0  0  0  0  0  0  0
    4.5981   -3.6200    0.0000 H   0  0  0  0  0  0  0  0  0  0  0  0
    5.2181   -3.0000    0.0000 H   0  0  0  0  0  0  0  0  0  0  0  0
    7.1962    0.8800    0.0000 H   0  0  0  0  0  0  0  0  0  0  0  0
    5.7932    3.3100    0.0000 H   0  0  0  0  0  0  0  0  0  0  0  0
    5.7932   -3.3100    0.0000 H   0  0  0  0  0  0  0  0  0  0  0  0
    7.1962   -0.8800    0.0000 H   0  0  0  0  0  0  0  0  0  0  0  0
    7.1962    4.1200    0.0000 H   0  0  0  0  0  0  0  0  0  0  0  0
    8.5991    3.3100    0.0000 H   0  0  0  0  0  0  0  0  0  0  0  0
    7.1962   -4.1200    0.0000 H   0  0  0  0  0  0  0  0  0  0  0  0
    8.5991   -3.3100    0.0000 H   0  0  0  0  0  0  0  0  0  0  0  0
   10.3312    1.6900    0.0000 H   0  0  0  0  0  0  0  0  0  0  0  0
  1  2  2  0  0  0  0
  1  3  2  0  0  0  0
  1  8  1  0  0  0  0
  1 17  1  0  0  0  0
  4  9  1  0  0  0  0
  5  9  2  0  0  0  0
  6 29  1  0  0  0  0
  6 44  1  0  0  0  0
  7 29  2  0  0  0  0
  8 11  1  0  0  0  0
  8 31  1  0  0  0  0
  9 15  1  0  0  0  0
 10 24  1  0  0  0  0
 10 28  2  0  0  0  0
 11 14  1  0  0  0  0
 11 15  2  0  0  0  0
 12 13  1  0  0  0  0
 12 14  2  0  0  0  0
 12 18  1  0  0  0  0
 13 16  2  0  0  0  0
 13 19  1  0  0  0  0
 14 30  1  0  0  0  0
 15 16  1  0  0  0  0
 16 32  1  0  0  0  0
 17 20  1  0  0  0  0
 17 21  2  0  0  0  0
 18 23  1  0  0  0  0
 18 24  2  0  0  0  0
 19 33  1  0  0  0  0
 19 34  1  0  0  0  0
 19 35  1  0  0  0  0
 20 22  2  0  0  0  0
 20 36  1  0  0  0  0
 21 25  1  0  0  0  0
 21 37  1  0  0  0  0
 22 26  1  0  0  0  0
 22 29  1  0  0  0  0
 23 27  2  0  0  0  0
 23 38  1  0  0  0  0
 24 39  1  0  0  0  0
 25 26  2  0  0  0  0
 25 40  1  0  0  0  0
 26 41  1  0  0  0  0
 27 28  1  0  0  0  0
 27 42  1  0  0  0  0
 28 43  1  0  0  0  0
M  CHG  2   4  -1   9   1
M  END
> <PUBCHEM_COMPOUND_CID>
86280646

> <PUBCHEM_COMPOUND_CANONICALIZED>
1

> <PUBCHEM_CACTVS_COMPLEXITY>
704

> <PUBCHEM_CACTVS_HBOND_ACCEPTOR>
8

> <PUBCHEM_CACTVS_HBOND_DONOR>
2

> <PUBCHEM_CACTVS_ROTATABLE_BOND>
5

> <PUBCHEM_CACTVS_SUBSKEYS>
AAADccB7OABAAAAAAAAAAAAAAAAAAAAAAAA8YIAAAAAAAAAB0AAAHgQUSAAADAjB2gQ+yZJYUgKpAjT3T3DCgDA1AiAo2Dk4fNoIZvLAlZGEcQhk0IHI2YeYyOCOiAAAwAAQACAQAAGAACAAQAAAAAAAAA==

> <PUBCHEM_IUPAC_OPENEYE_NAME>
3-[[4-methyl-2-nitro-5-(3-pyridyl)phenyl]sulfamoyl]benzoic acid

> <PUBCHEM_IUPAC_CAS_NAME>
3-[[4-methyl-2-nitro-5-(3-pyridinyl)phenyl]sulfamoyl]benzoic acid

> <PUBCHEM_IUPAC_NAME_MARKUP>
3-[(4-methyl-2-nitro-5-pyridin-3-ylphenyl)sulfamoyl]benzoic acid

> <PUBCHEM_IUPAC_NAME>
3-[(4-methyl-2-nitro-5-pyridin-3-ylphenyl)sulfamoyl]benzoic acid

> <PUBCHEM_IUPAC_SYSTEMATIC_NAME>
3-[(4-methyl-2-nitro-5-pyridin-3-yl-phenyl)sulfamoyl]benzoic acid

> <PUBCHEM_IUPAC_TRADITIONAL_NAME>
3-[[4-methyl-2-nitro-5-(3-pyridyl)phenyl]sulfamoyl]benzoic acid

> <PUBCHEM_IUPAC_INCHI>
InChI=1S/C19H15N3O6S/c1-12-8-18(22(25)26)17(10-16(12)14-5-3-7-20-11-14)21-29(27,28)15-6-2-4-13(9-15)19(23)24/h2-11,21H,1H3,(H,23,24)

> <PUBCHEM_IUPAC_INCHIKEY>
QUQGQIASFYWKAB-UHFFFAOYSA-N

> <PUBCHEM_XLOGP3_AA>
3.3

> <PUBCHEM_EXACT_MASS>
413.06815638

> <PUBCHEM_MOLECULAR_FORMULA>
C19H15N3O6S

> <PUBCHEM_MOLECULAR_WEIGHT>
413.4

> <PUBCHEM_OPENEYE_CAN_SMILES>
CC1=CC(=C(C=C1C2=CN=CC=C2)NS(=O)(=O)C3=CC=CC(=C3)C(=O)O)[N+](=O)[O-]

> <PUBCHEM_OPENEYE_ISO_SMILES>
CC1=CC(=C(C=C1C2=CN=CC=C2)NS(=O)(=O)C3=CC=CC(=C3)C(=O)O)[N+](=O)[O-]

> <PUBCHEM_CACTVS_TPSA>
151

> <PUBCHEM_MONOISOTOPIC_WEIGHT>
413.06815638

> <PUBCHEM_TOTAL_CHARGE>
0

> <PUBCHEM_HEAVY_ATOM_COUNT>
29

> <PUBCHEM_ATOM_DEF_STEREO_COUNT>
0

> <PUBCHEM_ATOM_UDEF_STEREO_COUNT>
0

> <PUBCHEM_BOND_DEF_STEREO_COUNT>
0

> <PUBCHEM_BOND_UDEF_STEREO_COUNT>
0

> <PUBCHEM_ISOTOPIC_ATOM_COUNT>
0

> <PUBCHEM_COMPONENT_COUNT>
1

> <PUBCHEM_CACTVS_TAUTO_COUNT>
10

> <PUBCHEM_COORDINATE_TYPE>
1
5
255

> <PUBCHEM_BONDANNOTATIONS>
10  24  8
10  28  8
11  14  8
11  15  8
12  13  8
12  14  8
13  16  8
15  16  8
17  20  8
17  21  8
18  23  8
18  24  8
20  22  8
21  25  8
22  26  8
23  27  8
25  26  8
27  28  8

$$$$
91885617
  -OEChem-11282412102D

 58 61  0     1  0  0  0  0  0999 V2000
    4.5981    0.7329    0.0000 Cl  0  0  0  0  0  0  0  0  0  0  0  0
    6.3301   -2.2671    0.0000 Cl  0  0  0  0  0  0  0  0  0  0  0  0
   12.4660   -0.7362    0.0000 O   0  0  0  0  0  0  0  0  0  0  0  0
   13.3147    3.7671    0.0000 O   0  0  0  0  0  0  0  0  0  0  0  0
    4.5981   -3.2671    0.0000 O   0  0  0  0  0  0  0  0  0  0  0  0
    2.8660   -0.2671    0.0000 O   0  0  0  0  0  0  0  0  0  0  0  0
   10.7263    1.2571    0.0000 N   0  0  0  0  0  0  0  0  0  0  0  0
   12.4545    2.2638    0.0000 N   0  0  0  0  0  0  0  0  0  0  0  0
    8.9561    1.2676    0.0000 N   0  0  0  0  0  0  0  0  0  0  0  0
    9.8622   -0.2879    0.0000 N   0  0  0  0  0  0  0  0  0  0  0  0
   12.4583    1.2638    0.0000 C   0  0  2  0  0  0  0  0  0  0  0  0
   11.5942    0.7604    0.0000 C   0  0  1  0  0  0  0  0  0  0  0  0
   13.3263    0.7671    0.0000 C   0  0  0  0  0  0  0  0  0  0  0  0
   11.5981   -0.2396    0.0000 C   0  0  0  0  0  0  0  0  0  0  0  0
   13.3301   -0.2329    0.0000 C   0  0  0  0  0  0  0  0  0  0  0  0
    9.8622    0.7537    0.0000 C   0  0  0  0  0  0  0  0  0  0  0  0
   13.3186    2.7671    0.0000 C   0  0  0  0  0  0  0  0  0  0  0  0
    8.0622    0.7329    0.0000 C   0  0  0  0  0  0  0  0  0  0  0  0
    8.0622   -0.2671    0.0000 C   0  0  0  0  0  0  0  0  0  0  0  0
   14.1865    2.2704    0.0000 C   0  0  0  0  0  0  0  0  0  0  0  0
    8.9561   -0.8017    0.0000 C   0  0  0  0  0  0  0  0  0  0  0  0
    7.1962   -0.7671    0.0000 C   0  0  0  0  0  0  0  0  0  0  0  0
    6.3301   -0.2671    0.0000 C   0  0  0  0  0  0  0  0  0  0  0  0
    7.1962    1.2329    0.0000 C   0  0  0  0  0  0  0  0  0  0  0  0
    6.3301    0.7329    0.0000 C   0  0  0  0  0  0  0  0  0  0  0  0
    5.4641   -0.7671    0.0000 C   0  0  0  0  0  0  0  0  0  0  0  0
   15.0506    2.7738    0.0000 C   0  0  0  0  0  0  0  0  0  0  0  0
    4.5981   -0.2671    0.0000 C   0  0  0  0  0  0  0  0  0  0  0  0
    5.4641   -1.7671    0.0000 C   0  0  0  0  0  0  0  0  0  0  0  0
    4.5981   -2.2671    0.0000 C   0  0  0  0  0  0  0  0  0  0  0  0
    3.7320   -0.7671    0.0000 C   0  0  0  0  0  0  0  0  0  0  0  0
    3.7320   -1.7671    0.0000 C   0  0  0  0  0  0  0  0  0  0  0  0
    3.7320   -3.7671    0.0000 C   0  0  0  0  0  0  0  0  0  0  0  0
    2.0000   -0.7671    0.0000 C   0  0  0  0  0  0  0  0  0  0  0  0
   12.9941    1.5758    0.0000 H   0  0  0  0  0  0  0  0  0  0  0  0
   11.5918    1.3804    0.0000 H   0  0  0  0  0  0  0  0  0  0  0  0
   13.9373    0.6618    0.0000 H   0  0  0  0  0  0  0  0  0  0  0  0
   13.5361    1.3505    0.0000 H   0  0  0  0  0  0  0  0  0  0  0  0
   10.9871   -0.1343    0.0000 H   0  0  0  0  0  0  0  0  0  0  0  0
   11.3883   -0.8230    0.0000 H   0  0  0  0  0  0  0  0  0  0  0  0
   13.5444   -0.8147    0.0000 H   0  0  0  0  0  0  0  0  0  0  0  0
   13.9403   -0.1229    0.0000 H   0  0  0  0  0  0  0  0  0  0  0  0
   10.7239    1.8771    0.0000 H   0  0  0  0  0  0  0  0  0  0  0  0
   11.9163    2.5717    0.0000 H   0  0  0  0  0  0  0  0  0  0  0  0
   14.1889    1.6504    0.0000 H   0  0  0  0  0  0  0  0  0  0  0  0
    8.9490   -1.4217    0.0000 H   0  0  0  0  0  0  0  0  0  0  0  0
    7.1962   -1.3871    0.0000 H   0  0  0  0  0  0  0  0  0  0  0  0
    7.1962    1.8529    0.0000 H   0  0  0  0  0  0  0  0  0  0  0  0
    5.7932    1.0429    0.0000 H   0  0  0  0  0  0  0  0  0  0  0  0
   15.5887    2.4658    0.0000 H   0  0  0  0  0  0  0  0  0  0  0  0
   15.0482    3.3938    0.0000 H   0  0  0  0  0  0  0  0  0  0  0  0
    3.1951   -2.0771    0.0000 H   0  0  0  0  0  0  0  0  0  0  0  0
    3.4220   -3.2301    0.0000 H   0  0  0  0  0  0  0  0  0  0  0  0
    3.1951   -4.0771    0.0000 H   0  0  0  0  0  0  0  0  0  0  0  0
    4.0420   -4.3040    0.0000 H   0  0  0  0  0  0  0  0  0  0  0  0
    1.6900   -0.2301    0.0000 H   0  0  0  0  0  0  0  0  0  0  0  0
    1.4631   -1.0771    0.0000 H   0  0  0  0  0  0  0  0  0  0  0  0
    2.3100   -1.3040    0.0000 H   0  0  0  0  0  0  0  0  0  0  0  0
  1 28  1  0  0  0  0
  2 29  1  0  0  0  0
  3 14  1  0  0  0  0
  3 15  1  0  0  0  0
  4 17  2  0  0  0  0
  5 30  1  0  0  0  0
  5 33  1  0  0  0  0
  6 31  1  0  0  0  0
  6 34  1  0  0  0  0
 12  7  1  1  0  0  0
  7 16  1  0  0  0  0
  7 43  1  0  0  0  0
 11  8  1  1  0  0  0
  8 17  1  0  0  0  0
  8 44  1  0  0  0  0
  9 16  1  0  0  0  0
  9 18  2  0  0  0  0
 10 16  2  0  0  0  0
 10 21  1  0  0  0  0
 11 12  1  0  0  0  0
 11 13  1  0  0  0  0
 11 35  1  0  0  0  0
 12 14  1  0  0  0  0
 12 36  1  0  0  0  0
 13 15  1  0  0  0  0
 13 37  1  0  0  0  0
 13 38  1  0  0  0  0
 14 39  1  0  0  0  0
 14 40  1  0  0  0  0
 15 41  1  0  0  0  0
 15 42  1  0  0  0  0
 17 20  1  0  0  0  0
 18 19  1  0  0  0  0
 18 24  1  0  0  0  0
 19 21  2  0  0  0  0
 19 22  1  0  0  0  0
 20 27  2  0  0  0  0
 20 45  1  0  0  0  0
 21 46  1  0  0  0  0
 22 23  2  0  0  0  0
 22 47  1  0  0  0  0
 23 25  1  0  0  0  0
 23 26  1  0  0  0  0
 24 25  2  0  0  0  0
 24 48  1  0  0  0  0
 25 49  1  0  0  0  0
 26 28  2  0  0  0  0
 26 29  1  0  0  0  0
 27 50  1  0  0  0  0
 27 51  1  0  0  0  0
 28 31  1  0  0  0  0
 29 30  2  0  0  0  0
 30 32  1  0  0  0  0
 31 32  2  0  0  0  0
 32 52  1  0  0  0  0
 33 53  1  0  0  0  0
 33 54  1  0  0  0  0
 33 55  1  0  0  0  0
 34 56  1  0  0  0  0
 34 57  1  0  0  0  0
 34 58  1  0  0  0  0
M  END
> <PUBCHEM_COMPOUND_CID>
91885617

> <PUBCHEM_COMPOUND_CANONICALIZED>
1

> <PUBCHEM_CACTVS_COMPLEXITY>
688

> <PUBCHEM_CACTVS_HBOND_ACCEPTOR>
7

> <PUBCHEM_CACTVS_HBOND_DONOR>
2

> <PUBCHEM_CACTVS_ROTATABLE_BOND>
7

> <PUBCHEM_CACTVS_SUBSKEYS>
AAADceB7uAAGAAAAAAAAAAAAAAAAAAAAAAA8aIEAAAAAAACx9AAAHgIQAAAADC7hniY/1vbIFACoAzV3dACCiCkxJuAJ2KA+b9iOb6PF+9uXNChv1hfY6Kew4PwOiCADCACDCAAQQAYQAQYQAAAAAAAAAA==

> <PUBCHEM_IUPAC_OPENEYE_NAME>
N-[(3S,4S)-3-[[6-(2,6-dichloro-3,5-dimethoxy-phenyl)quinazolin-2-yl]amino]tetrahydropyran-4-yl]prop-2-enamide

> <PUBCHEM_IUPAC_CAS_NAME>
N-[(3S,4S)-3-[[6-(2,6-dichloro-3,5-dimethoxyphenyl)-2-quinazolinyl]amino]-4-oxanyl]-2-propenamide

> <PUBCHEM_IUPAC_NAME_MARKUP>
<I>N</I>-[(3<I>S</I>,4<I>S</I>)-3-[[6-(2,6-dichloro-3,5-dimethoxyphenyl)quinazolin-2-yl]amino]oxan-4-yl]prop-2-enamide

> <PUBCHEM_IUPAC_NAME>
N-[(3S,4S)-3-[[6-(2,6-dichloro-3,5-dimethoxyphenyl)quinazolin-2-yl]amino]oxan-4-yl]prop-2-enamide

> <PUBCHEM_IUPAC_SYSTEMATIC_NAME>
N-[(3S,4S)-3-[[6-[2,6-bis(chloranyl)-3,5-dimethoxy-phenyl]quinazolin-2-yl]amino]oxan-4-yl]prop-2-enamide

> <PUBCHEM_IUPAC_TRADITIONAL_NAME>
N-[(3S,4S)-3-[[6-(2,6-dichloro-3,5-dimethoxy-phenyl)quinazolin-2-yl]amino]tetrahydropyran-4-yl]acrylamide

> <PUBCHEM_IUPAC_INCHI>
InChI=1S/C24H24Cl2N4O4/c1-4-20(31)28-16-7-8-34-12-17(16)30-24-27-11-14-9-13(5-6-15(14)29-24)21-22(25)18(32-2)10-19(33-3)23(21)26/h4-6,9-11,16-17H,1,7-8,12H2,2-3H3,(H,28,31)(H,27,29,30)/t16-,17+/m0/s1

> <PUBCHEM_IUPAC_INCHIKEY>
MGZKYOAQVGSSGC-DLBZAZTESA-N

> <PUBCHEM_XLOGP3_AA>
4.7

> <PUBCHEM_EXACT_MASS>
502.1174606

> <PUBCHEM_MOLECULAR_FORMULA>
C24H24Cl2N4O4

> <PUBCHEM_MOLECULAR_WEIGHT>
503.4

> <PUBCHEM_OPENEYE_CAN_SMILES>
COC1=CC(=C(C(=C1Cl)C2=CC3=CN=C(N=C3C=C2)NC4COCCC4NC(=O)C=C)Cl)OC

> <PUBCHEM_OPENEYE_ISO_SMILES>
COC1=CC(=C(C(=C1Cl)C2=CC3=CN=C(N=C3C=C2)N[C@@H]4COCC[C@@H]4NC(=O)C=C)Cl)OC

> <PUBCHEM_CACTVS_TPSA>
94.6

> <PUBCHEM_MONOISOTOPIC_WEIGHT>
502.1174606

> <PUBCHEM_TOTAL_CHARGE>
0

> <PUBCHEM_HEAVY_ATOM_COUNT>
34

> <PUBCHEM_ATOM_DEF_STEREO_COUNT>
2

> <PUBCHEM_ATOM_UDEF_STEREO_COUNT>
0

> <PUBCHEM_BOND_DEF_STEREO_COUNT>
0

> <PUBCHEM_BOND_UDEF_STEREO_COUNT>
0

> <PUBCHEM_ISOTOPIC_ATOM_COUNT>
0

> <PUBCHEM_COMPONENT_COUNT>
1

> <PUBCHEM_CACTVS_TAUTO_COUNT>
-1

> <PUBCHEM_COORDINATE_TYPE>
1
5
255

> <PUBCHEM_BONDANNOTATIONS>
10  16  8
10  21  8
18  19  8
18  24  8
19  21  8
19  22  8
22  23  8
23  25  8
24  25  8
26  28  8
26  29  8
28  31  8
29  30  8
30  32  8
31  32  8
12  7  5
11  8  5
9  16  8
9  18  8

$$$$
124090478
  -OEChem-11282412102D

 56 60  0     1  0  0  0  0  0999 V2000
    4.3621   -3.0519    0.0000 N   0  0  0  0  0  0  0  0  0  0  0  0
    6.3849   -0.0581    0.0000 N   0  0  0  0  0  0  0  0  0  0  0  0
    5.5189    1.4419    0.0000 N   0  0  0  0  0  0  0  0  0  0  0  0
    5.9484   -6.2897    0.0000 N   0  0  0  0  0  0  0  0  0  0  0  0
    8.1449    2.9765    0.0000 N   0  0  0  0  0  0  0  0  0  0  0  0
    4.6529    2.9419    0.0000 N   0  0  0  0  0  0  0  0  0  0  0  0
    3.8438    4.5296    0.0000 N   0  0  0  0  0  0  0  0  0  0  0  0
    4.1529    5.4807    0.0000 N   0  0  0  0  0  0  0  0  0  0  0  0
    3.4660   -2.2121    0.0000 C   0  0  2  0  0  0  0  0  0  0  0  0
    3.5532   -1.2159    0.0000 C   0  0  1  0  0  0  0  0  0  0  0  0
    2.0000   -1.9540    0.0000 C   0  0  0  0  0  0  0  0  0  0  0  0
    2.0872   -0.9578    0.0000 C   0  0  0  0  0  0  0  0  0  0  0  0
    5.4144   -1.5526    0.0000 C   0  0  0  0  0  0  0  0  0  0  0  0
    4.6053   -0.1514    0.0000 C   0  0  0  0  0  0  0  0  0  0  0  0
    5.5189   -0.5581    0.0000 C   0  0  0  0  0  0  0  0  0  0  0  0
    5.0049   -3.8180    0.0000 C   0  0  0  0  0  0  0  0  0  0  0  0
    4.6629   -4.7576    0.0000 C   0  0  0  0  0  0  0  0  0  0  0  0
    6.3849    0.9419    0.0000 C   0  0  0  0  0  0  0  0  0  0  0  0
    7.2510    1.4419    0.0000 C   0  0  0  0  0  0  0  0  0  0  0  0
    5.3056   -5.5237    0.0000 C   0  0  0  0  0  0  0  0  0  0  0  0
    7.2510    2.4419    0.0000 C   0  0  0  0  0  0  0  0  0  0  0  0
    5.5189    2.4419    0.0000 C   0  0  0  0  0  0  0  0  0  0  0  0
    8.1449    0.9072    0.0000 C   0  0  0  0  0  0  0  0  0  0  0  0
    6.3849    2.9419    0.0000 C   0  0  0  0  0  0  0  0  0  0  0  0
    9.0510    1.4210    0.0000 C   0  0  0  0  0  0  0  0  0  0  0  0
    9.0510    2.4627    0.0000 C   0  0  0  0  0  0  0  0  0  0  0  0
    4.6529    3.9419    0.0000 C   0  0  0  0  0  0  0  0  0  0  0  0
    5.4619    4.5296    0.0000 C   0  0  0  0  0  0  0  0  0  0  0  0
    5.1529    5.4807    0.0000 C   0  0  0  0  0  0  0  0  0  0  0  0
    5.7406    6.2897    0.0000 C   0  0  0  0  0  0  0  0  0  0  0  0
    3.3920   -3.0589    0.0000 H   0  0  0  0  0  0  0  0  0  0  0  0
    3.6273   -0.3692    0.0000 H   0  0  0  0  0  0  0  0  0  0  0  0
    1.3842   -1.8820    0.0000 H   0  0  0  0  0  0  0  0  0  0  0  0
    1.9102   -2.5674    0.0000 H   0  0  0  0  0  0  0  0  0  0  0  0
    2.1769   -0.3443    0.0000 H   0  0  0  0  0  0  0  0  0  0  0  0
    1.4713   -0.8858    0.0000 H   0  0  0  0  0  0  0  0  0  0  0  0
    5.5270   -2.1623    0.0000 H   0  0  0  0  0  0  0  0  0  0  0  0
    6.0339   -1.5285    0.0000 H   0  0  0  0  0  0  0  0  0  0  0  0
    4.9236    0.3807    0.0000 H   0  0  0  0  0  0  0  0  0  0  0  0
    4.1153    0.2284    0.0000 H   0  0  0  0  0  0  0  0  0  0  0  0
    5.4864    0.0610    0.0000 H   0  0  0  0  0  0  0  0  0  0  0  0
    5.5418   -4.1280    0.0000 H   0  0  0  0  0  0  0  0  0  0  0  0
    5.4034   -3.3430    0.0000 H   0  0  0  0  0  0  0  0  0  0  0  0
    6.9219   -0.3681    0.0000 H   0  0  0  0  0  0  0  0  0  0  0  0
    4.1259   -4.4476    0.0000 H   0  0  0  0  0  0  0  0  0  0  0  0
    4.2643   -5.2326    0.0000 H   0  0  0  0  0  0  0  0  0  0  0  0
    8.1377    0.2872    0.0000 H   0  0  0  0  0  0  0  0  0  0  0  0
    6.3849    3.5619    0.0000 H   0  0  0  0  0  0  0  0  0  0  0  0
    9.5867    1.1090    0.0000 H   0  0  0  0  0  0  0  0  0  0  0  0
    4.1159    2.6319    0.0000 H   0  0  0  0  0  0  0  0  0  0  0  0
    9.5867    2.7748    0.0000 H   0  0  0  0  0  0  0  0  0  0  0  0
    6.0515    4.3381    0.0000 H   0  0  0  0  0  0  0  0  0  0  0  0
    3.7884    5.9823    0.0000 H   0  0  0  0  0  0  0  0  0  0  0  0
    6.2422    5.9253    0.0000 H   0  0  0  0  0  0  0  0  0  0  0  0
    6.1051    6.7913    0.0000 H   0  0  0  0  0  0  0  0  0  0  0  0
    5.2391    6.6542    0.0000 H   0  0  0  0  0  0  0  0  0  0  0  0
  1  9  1  0  0  0  0
  1 10  1  0  0  0  0
  1 16  1  0  0  0  0
  2 15  1  0  0  0  0
  2 18  1  0  0  0  0
  2 44  1  0  0  0  0
  3 18  1  0  0  0  0
  3 22  2  0  0  0  0
  4 20  3  0  0  0  0
  5 21  1  0  0  0  0
  5 26  2  0  0  0  0
  6 22  1  0  0  0  0
  6 27  1  0  0  0  0
  6 50  1  0  0  0  0
  7  8  1  0  0  0  0
  7 27  2  0  0  0  0
  8 29  1  0  0  0  0
  8 53  1  0  0  0  0
  9 11  1  0  0  0  0
  9 13  1  0  0  0  0
  9 31  1  1  0  0  0
 10 12  1  0  0  0  0
 10 14  1  0  0  0  0
 10 32  1  6  0  0  0
 11 12  1  0  0  0  0
 11 33  1  0  0  0  0
 11 34  1  0  0  0  0
 12 35  1  0  0  0  0
 12 36  1  0  0  0  0
 13 15  1  0  0  0  0
 13 37  1  0  0  0  0
 13 38  1  0  0  0  0
 14 15  1  0  0  0  0
 14 39  1  0  0  0  0
 14 40  1  0  0  0  0
 15 41  1  0  0  0  0
 16 17  1  0  0  0  0
 16 42  1  0  0  0  0
 16 43  1  0  0  0  0
 17 20  1  0  0  0  0
 17 45  1  0  0  0  0
 17 46  1  0  0  0  0
 18 19  2  0  0  0  0
 19 21  1  0  0  0  0
 19 23  1  0  0  0  0
 21 24  2  0  0  0  0
 22 24  1  0  0  0  0
 23 25  2  0  0  0  0
 23 47  1  0  0  0  0
 24 48  1  0  0  0  0
 25 26  1  0  0  0  0
 25 49  1  0  0  0  0
 26 51  1  0  0  0  0
 27 28  1  0  0  0  0
 28 29  2  0  0  0  0
 28 52  1  0  0  0  0
 29 30  1  0  0  0  0
 30 54  1  0  0  0  0
 30 55  1  0  0  0  0
 30 56  1  0  0  0  0
M  END
> <PUBCHEM_COMPOUND_CID>
124090478

> <PUBCHEM_COMPOUND_CANONICALIZED>
1

> <PUBCHEM_CACTVS_COMPLEXITY>
620

> <PUBCHEM_CACTVS_HBOND_ACCEPTOR>
7

> <PUBCHEM_CACTVS_HBOND_DONOR>
3

> <PUBCHEM_CACTVS_ROTATABLE_BOND>
6

> <PUBCHEM_CACTVS_SUBSKEYS>
AAADceB7wAAAAAAAAAAAAAAAAAAAAWLAAAAsWLAABgAAAACx/gAAHAAYAAAADCjBHgQ/8PPrEACyBzZnZACShCsxAiAd+aA4ZJiIoOLA2dGEpAh4mALIyCcQgAAOAAAAAAAAAAAAAAAAAAAAAAAAAAAAAA==

> <PUBCHEM_IUPAC_OPENEYE_NAME>
3-[(1R,5S)-3-[[7-[(5-methyl-1H-pyrazol-3-yl)amino]-1,6-naphthyridin-5-yl]amino]-8-azabicyclo[3.2.1]octan-8-yl]propanenitrile

> <PUBCHEM_IUPAC_CAS_NAME>
3-[(1R,5S)-3-[[7-[(5-methyl-1H-pyrazol-3-yl)amino]-1,6-naphthyridin-5-yl]amino]-8-azabicyclo[3.2.1]octan-8-yl]propanenitrile

> <PUBCHEM_IUPAC_NAME_MARKUP>
3-[(1<I>R</I>,5<I>S</I>)-3-[[7-[(5-methyl-1<I>H</I>-pyrazol-3-yl)amino]-1,6-naphthyridin-5-yl]amino]-8-azabicyclo[3.2.1]octan-8-yl]propanenitrile

> <PUBCHEM_IUPAC_NAME>
3-[(1R,5S)-3-[[7-[(5-methyl-1H-pyrazol-3-yl)amino]-1,6-naphthyridin-5-yl]amino]-8-azabicyclo[3.2.1]octan-8-yl]propanenitrile

> <PUBCHEM_IUPAC_SYSTEMATIC_NAME>
3-[(1R,5S)-3-[[7-[(5-methyl-1H-pyrazol-3-yl)amino]-1,6-naphthyridin-5-yl]amino]-8-azabicyclo[3.2.1]octan-8-yl]propanenitrile

> <PUBCHEM_IUPAC_TRADITIONAL_NAME>
3-[(1R,5S)-3-[[7-[(5-methyl-1H-pyrazol-3-yl)amino]-1,6-naphthyridin-5-yl]amino]-8-azabicyclo[3.2.1]octan-8-yl]propionitrile

> <PUBCHEM_IUPAC_INCHI>
InChI=1S/C22H26N8/c1-14-10-21(29-28-14)26-20-13-19-18(4-2-8-24-19)22(27-20)25-15-11-16-5-6-17(12-15)30(16)9-3-7-23/h2,4,8,10,13,15-17H,3,5-6,9,11-12H2,1H3,(H3,25,26,27,28,29)/t15?,16-,17+

> <PUBCHEM_IUPAC_INCHIKEY>
DADAEARVGOQWHV-ALOPSCKCSA-N

> <PUBCHEM_XLOGP3_AA>
3.2

> <PUBCHEM_EXACT_MASS>
402.22804286

> <PUBCHEM_MOLECULAR_FORMULA>
C22H26N8

> <PUBCHEM_MOLECULAR_WEIGHT>
402.5

> <PUBCHEM_OPENEYE_CAN_SMILES>
CC1=CC(=NN1)NC2=NC(=C3C=CC=NC3=C2)NC4CC5CCC(C4)N5CCC#N

> <PUBCHEM_OPENEYE_ISO_SMILES>
CC1=CC(=NN1)NC2=NC(=C3C=CC=NC3=C2)NC4C[C@H]5CC[C@@H](C4)N5CCC#N

> <PUBCHEM_CACTVS_TPSA>
106

> <PUBCHEM_MONOISOTOPIC_WEIGHT>
402.22804286

> <PUBCHEM_TOTAL_CHARGE>
0

> <PUBCHEM_HEAVY_ATOM_COUNT>
30

> <PUBCHEM_ATOM_DEF_STEREO_COUNT>
2

> <PUBCHEM_ATOM_UDEF_STEREO_COUNT>
0

> <PUBCHEM_BOND_DEF_STEREO_COUNT>
0

> <PUBCHEM_BOND_UDEF_STEREO_COUNT>
0

> <PUBCHEM_ISOTOPIC_ATOM_COUNT>
0

> <PUBCHEM_COMPONENT_COUNT>
1

> <PUBCHEM_CACTVS_TAUTO_COUNT>
-1

> <PUBCHEM_COORDINATE_TYPE>
1
5
255

> <PUBCHEM_BONDANNOTATIONS>
10  32  6
18  19  8
19  21  8
19  23  8
21  24  8
22  24  8
23  25  8
25  26  8
27  28  8
28  29  8
3  18  8
3  22  8
5  21  8
5  26  8
7  27  8
7  8  8
8  29  8
9  31  5

$$$$
131863586
  -OEChem-11282412102D

 64 66  0     0  0  0  0  0  0999 V2000
    3.0000    7.4847    0.0000 Cl  0  0  0  0  0  0  0  0  0  0  0  0
    0.0000    7.4847    0.0000 Cl  0  0  0  0  0  0  0  0  0  0  0  0
    7.3660    8.7540    0.0000 F   0  0  0  0  0  0  0  0  0  0  0  0
    6.0000    9.1200    0.0000 F   0  0  0  0  0  0  0  0  0  0  0  0
    6.3660   10.4860    0.0000 F   0  0  0  0  0  0  0  0  0  0  0  0
    9.4641    8.1200    0.0000 O   0  0  0  0  0  0  0  0  0  0  0  0
    8.5981   12.6200    0.0000 N   0  0  0  0  0  0  0  0  0  0  0  0
   10.3301    9.6200    0.0000 N   0  0  0  0  0  0  0  0  0  0  0  0
   12.0622    5.6200    0.0000 N   0  0  0  0  0  0  0  0  0  0  0  0
    8.0981   14.1588    0.0000 N   0  0  0  0  0  0  0  0  0  0  0  0
   11.1962    4.1200    0.0000 N   0  0  0  0  0  0  0  0  0  0  0  0
   10.3301    5.6200    0.0000 N   0  0  0  0  0  0  0  0  0  0  0  0
    9.4641    2.1200    0.0000 N   0  0  0  0  0  0  0  0  0  0  0  0
   11.1962    1.1200    0.0000 N   0  0  0  0  0  0  0  0  0  0  0  0
    8.5981   11.6200    0.0000 C   0  0  0  0  0  0  0  0  0  0  0  0
    9.4641   10.1200    0.0000 C   0  0  0  0  0  0  0  0  0  0  0  0
    7.7320   10.1200    0.0000 C   0  0  0  0  0  0  0  0  0  0  0  0
    9.4641   11.1200    0.0000 C   0  0  0  0  0  0  0  0  0  0  0  0
    7.7320   11.1200    0.0000 C   0  0  0  0  0  0  0  0  0  0  0  0
    8.5981    9.6200    0.0000 C   0  0  0  0  0  0  0  0  0  0  0  0
   11.1962    8.1200    0.0000 C   0  0  0  0  0  0  0  0  0  0  0  0
   12.0622    6.6200    0.0000 C   0  0  0  0  0  0  0  0  0  0  0  0
   12.9282    7.1200    0.0000 C   0  0  0  0  0  0  0  0  0  0  0  0
   11.1962    7.1200    0.0000 C   0  0  0  0  0  0  0  0  0  0  0  0
   10.3301    8.6200    0.0000 C   0  0  0  0  0  0  0  0  0  0  0  0
    9.4071   13.2078    0.0000 C   0  0  0  0  0  0  0  0  0  0  0  0
   12.0622    8.6200    0.0000 C   0  0  0  0  0  0  0  0  0  0  0  0
    6.8660    9.6200    0.0000 C   0  0  0  0  0  0  0  0  0  0  0  0
   12.9282    8.1200    0.0000 C   0  0  0  0  0  0  0  0  0  0  0  0
    7.7891   13.2078    0.0000 C   0  0  0  0  0  0  0  0  0  0  0  0
    9.0981   14.1588    0.0000 C   0  0  0  0  0  0  0  0  0  0  0  0
   13.7942    6.6200    0.0000 C   0  0  0  0  0  0  0  0  0  0  0  0
    9.6859   14.9679    0.0000 C   0  0  0  0  0  0  0  0  0  0  0  0
   11.1962    5.1200    0.0000 C   0  0  0  0  0  0  0  0  0  0  0  0
   10.3301    3.6200    0.0000 C   0  0  0  0  0  0  0  0  0  0  0  0
    9.4641    4.1200    0.0000 C   0  0  0  0  0  0  0  0  0  0  0  0
    9.4641    5.1200    0.0000 C   0  0  0  0  0  0  0  0  0  0  0  0
   10.3301    2.6200    0.0000 C   0  0  0  0  0  0  0  0  0  0  0  0
   11.1962    2.1200    0.0000 C   0  0  0  0  0  0  0  0  0  0  0  0
    9.4641    1.1200    0.0000 C   0  0  0  0  0  0  0  0  0  0  0  0
   10.3301    0.6200    0.0000 C   0  0  0  0  0  0  0  0  0  0  0  0
   10.0010   11.4300    0.0000 H   0  0  0  0  0  0  0  0  0  0  0  0
    7.1951   11.4300    0.0000 H   0  0  0  0  0  0  0  0  0  0  0  0
    8.5981    9.0000    0.0000 H   0  0  0  0  0  0  0  0  0  0  0  0
   10.8671    9.9300    0.0000 H   0  0  0  0  0  0  0  0  0  0  0  0
   10.6592    6.8100    0.0000 H   0  0  0  0  0  0  0  0  0  0  0  0
    9.9968   13.0162    0.0000 H   0  0  0  0  0  0  0  0  0  0  0  0
   12.0622    9.2400    0.0000 H   0  0  0  0  0  0  0  0  0  0  0  0
   13.4651    8.4300    0.0000 H   0  0  0  0  0  0  0  0  0  0  0  0
    7.1994   13.0162    0.0000 H   0  0  0  0  0  0  0  0  0  0  0  0
   12.5991    5.3100    0.0000 H   0  0  0  0  0  0  0  0  0  0  0  0
   13.4842    6.0831    0.0000 H   0  0  0  0  0  0  0  0  0  0  0  0
   14.3312    6.3100    0.0000 H   0  0  0  0  0  0  0  0  0  0  0  0
   14.1042    7.1569    0.0000 H   0  0  0  0  0  0  0  0  0  0  0  0
   10.1875   14.6034    0.0000 H   0  0  0  0  0  0  0  0  0  0  0  0
   10.0503   15.4694    0.0000 H   0  0  0  0  0  0  0  0  0  0  0  0
    9.1843   15.3323    0.0000 H   0  0  0  0  0  0  0  0  0  0  0  0
    8.9272    3.8100    0.0000 H   0  0  0  0  0  0  0  0  0  0  0  0
    8.9272    5.4300    0.0000 H   0  0  0  0  0  0  0  0  0  0  0  0
   11.7331    2.4300    0.0000 H   0  0  0  0  0  0  0  0  0  0  0  0
    8.9272    0.8100    0.0000 H   0  0  0  0  0  0  0  0  0  0  0  0
   10.3301    0.0000    0.0000 H   0  0  0  0  0  0  0  0  0  0  0  0
    4.0000    7.4847    0.0000 H   0  0  0  0  0  0  0  0  0  0  0  0
    1.0000    7.4847    0.0000 H   0  0  0  0  0  0  0  0  0  0  0  0
  1 63  1  0  0  0  0
  2 64  1  0  0  0  0
  3 28  1  0  0  0  0
  4 28  1  0  0  0  0
  5 28  1  0  0  0  0
  6 25  2  0  0  0  0
  7 15  1  0  0  0  0
  7 26  1  0  0  0  0
  7 30  1  0  0  0  0
  8 16  1  0  0  0  0
  8 25  1  0  0  0  0
  8 45  1  0  0  0  0
  9 22  1  0  0  0  0
  9 34  1  0  0  0  0
  9 51  1  0  0  0  0
 10 30  2  0  0  0  0
 10 31  1  0  0  0  0
 11 34  1  0  0  0  0
 11 35  2  0  0  0  0
 12 34  2  0  0  0  0
 12 37  1  0  0  0  0
 13 38  2  0  0  0  0
 13 40  1  0  0  0  0
 14 39  2  0  0  0  0
 14 41  1  0  0  0  0
 15 18  1  0  0  0  0
 15 19  2  0  0  0  0
 16 18  2  0  0  0  0
 16 20  1  0  0  0  0
 17 19  1  0  0  0  0
 17 20  2  0  0  0  0
 17 28  1  0  0  0  0
 18 42  1  0  0  0  0
 19 43  1  0  0  0  0
 20 44  1  0  0  0  0
 21 24  2  0  0  0  0
 21 25  1  0  0  0  0
 21 27  1  0  0  0  0
 22 23  2  0  0  0  0
 22 24  1  0  0  0  0
 23 29  1  0  0  0  0
 23 32  1  0  0  0  0
 24 46  1  0  0  0  0
 26 31  2  0  0  0  0
 26 47  1  0  0  0  0
 27 29  2  0  0  0  0
 27 48  1  0  0  0  0
 29 49  1  0  0  0  0
 30 50  1  0  0  0  0
 31 33  1  0  0  0  0
 32 52  1  0  0  0  0
 32 53  1  0  0  0  0
 32 54  1  0  0  0  0
 33 55  1  0  0  0  0
 33 56  1  0  0  0  0
 33 57  1  0  0  0  0
 35 36  1  0  0  0  0
 35 38  1  0  0  0  0
 36 37  2  0  0  0  0
 36 58  1  0  0  0  0
 37 59  1  0  0  0  0
 38 39  1  0  0  0  0
 39 60  1  0  0  0  0
 40 41  2  0  0  0  0
 40 61  1  0  0  0  0
 41 62  1  0  0  0  0
M  END
> <PUBCHEM_COMPOUND_CID>
131863586

> <PUBCHEM_COMPOUND_CANONICALIZED>
1

> <PUBCHEM_CACTVS_COMPLEXITY>
818

> <PUBCHEM_CACTVS_HBOND_ACCEPTOR>
10

> <PUBCHEM_CACTVS_HBOND_DONOR>
4

> <PUBCHEM_CACTVS_ROTATABLE_BOND>
6

> <PUBCHEM_CACTVS_SUBSKEYS>
AAADceB74YAGAAAAAAAAAAAAAAAAAWAAAAA8eIEAAAAAAAAB/AAAHwAQAAAADAjBnhQ/0JfMEACoAzV3dACCgC01EqAJ2CE4dNiIaPLA3dGUJQholALIyacciACOQAAAQAQCAACAAACACAQAAAAAAAAAAA==

> <PUBCHEM_IUPAC_OPENEYE_NAME>
4-methyl-N-[3-(4-methylimidazol-1-yl)-5-(trifluoromethyl)phenyl]-3-[(4-pyrazin-2-ylpyrimidin-2-yl)amino]benzamide;dihydrochloride

> <PUBCHEM_IUPAC_CAS_NAME>
4-methyl-N-[3-(4-methyl-1-imidazolyl)-5-(trifluoromethyl)phenyl]-3-[[4-(2-pyrazinyl)-2-pyrimidinyl]amino]benzamide;dihydrochloride

> <PUBCHEM_IUPAC_NAME_MARKUP>
4-methyl-<I>N</I>-[3-(4-methylimidazol-1-yl)-5-(trifluoromethyl)phenyl]-3-[(4-pyrazin-2-ylpyrimidin-2-yl)amino]benzamide;dihydrochloride

> <PUBCHEM_IUPAC_NAME>
4-methyl-N-[3-(4-methylimidazol-1-yl)-5-(trifluoromethyl)phenyl]-3-[(4-pyrazin-2-ylpyrimidin-2-yl)amino]benzamide;dihydrochloride

> <PUBCHEM_IUPAC_SYSTEMATIC_NAME>
4-methyl-N-[3-(4-methylimidazol-1-yl)-5-(trifluoromethyl)phenyl]-3-[(4-pyrazin-2-ylpyrimidin-2-yl)amino]benzamide;dihydrochloride

> <PUBCHEM_IUPAC_TRADITIONAL_NAME>
4-methyl-N-[3-(4-methylimidazol-1-yl)-5-(trifluoromethyl)phenyl]-3-[(4-pyrazin-2-ylpyrimidin-2-yl)amino]benzamide;dihydrochloride

> <PUBCHEM_IUPAC_INCHI>
InChI=1S/C27H21F3N8O.2ClH/c1-16-3-4-18(9-23(16)37-26-33-6-5-22(36-26)24-13-31-7-8-32-24)25(39)35-20-10-19(27(28,29)30)11-21(12-20)38-14-17(2)34-15-38;;/h3-15H,1-2H3,(H,35,39)(H,33,36,37);2*1H

> <PUBCHEM_IUPAC_INCHIKEY>
GEWCZTBAWRSKBX-UHFFFAOYSA-N

> <PUBCHEM_EXACT_MASS>
602.1323973

> <PUBCHEM_MOLECULAR_FORMULA>
C27H23Cl2F3N8O

> <PUBCHEM_MOLECULAR_WEIGHT>
603.4

> <PUBCHEM_OPENEYE_CAN_SMILES>
CC1=C(C=C(C=C1)C(=O)NC2=CC(=CC(=C2)C(F)(F)F)N3C=C(N=C3)C)NC4=NC=CC(=N4)C5=NC=CN=C5.Cl.Cl

> <PUBCHEM_OPENEYE_ISO_SMILES>
CC1=C(C=C(C=C1)C(=O)NC2=CC(=CC(=C2)C(F)(F)F)N3C=C(N=C3)C)NC4=NC=CC(=N4)C5=NC=CN=C5.Cl.Cl

> <PUBCHEM_CACTVS_TPSA>
111

> <PUBCHEM_MONOISOTOPIC_WEIGHT>
602.1323973

> <PUBCHEM_TOTAL_CHARGE>
0

> <PUBCHEM_HEAVY_ATOM_COUNT>
41

> <PUBCHEM_ATOM_DEF_STEREO_COUNT>
0

> <PUBCHEM_ATOM_UDEF_STEREO_COUNT>
0

> <PUBCHEM_BOND_DEF_STEREO_COUNT>
0

> <PUBCHEM_BOND_UDEF_STEREO_COUNT>
0

> <PUBCHEM_ISOTOPIC_ATOM_COUNT>
0

> <PUBCHEM_COMPONENT_COUNT>
3

> <PUBCHEM_CACTVS_TAUTO_COUNT>
-1

> <PUBCHEM_COORDINATE_TYPE>
1
5
255

> <PUBCHEM_BONDANNOTATIONS>
10  30  8
10  31  8
11  34  8
11  35  8
12  34  8
12  37  8
13  38  8
13  40  8
14  39  8
14  41  8
15  18  8
15  19  8
16  18  8
16  20  8
17  19  8
17  20  8
21  24  8
21  27  8
22  23  8
22  24  8
23  29  8
26  31  8
27  29  8
35  36  8
36  37  8
38  39  8
40  41  8
7  26  8
7  30  8

$$$$
137535407
  -OEChem-11282412102D

 74 79  0     1  0  0  0  0  0999 V2000
    5.3147   -0.7228    0.0000 F   0  0  0  0  0  0  0  0  0  0  0  0
    6.1808    1.7772    0.0000 O   0  0  0  0  0  0  0  0  0  0  0  0
    7.0468    2.2772    0.0000 O   0  0  0  0  0  0  0  0  0  0  0  0
   13.9680   -2.7973    0.0000 O   0  0  0  0  0  0  0  0  0  0  0  0
    3.4782   -0.7173    0.0000 N   0  0  3  0  0  0  0  0  0  0  0  0
    7.0468    0.2772    0.0000 N   0  0  0  0  0  0  0  0  0  0  0  0
   10.5272   -0.7574    0.0000 N   0  0  0  0  0  0  0  0  0  0  0  0
   10.5388    2.3119    0.0000 N   0  0  0  0  0  0  0  0  0  0  0  0
   11.4449    0.7564    0.0000 N   0  0  0  0  0  0  0  0  0  0  0  0
   16.5832   -1.3274    0.0000 N   0  0  0  0  0  0  0  0  0  0  0  0
   17.5143   -2.6430    0.0000 N   0  0  0  0  0  0  0  0  0  0  0  0
   17.5329   -1.0337    0.0000 N   0  0  0  0  0  0  0  0  0  0  0  0
    3.5827    0.2772    0.0000 C   0  0  2  0  0  0  0  0  0  0  0  0
    2.6691    0.6839    0.0000 C   0  0  0  0  0  0  0  0  0  0  0  0
    2.0000   -0.0592    0.0000 C   0  0  0  0  0  0  0  0  0  0  0  0
    2.5000   -0.9252    0.0000 C   0  0  0  0  0  0  0  0  0  0  0  0
    4.4487    0.7772    0.0000 C   0  0  0  0  0  0  0  0  0  0  0  0
    4.2213   -1.3864    0.0000 C   0  0  0  0  0  0  0  0  0  0  0  0
    5.3147    0.2772    0.0000 C   0  0  0  0  0  0  0  0  0  0  0  0
    6.1808    0.7772    0.0000 C   0  0  0  0  0  0  0  0  0  0  0  0
    7.9128    0.7772    0.0000 C   0  0  0  0  0  0  0  0  0  0  0  0
    8.7788    0.2772    0.0000 C   0  0  0  0  0  0  0  0  0  0  0  0
    7.9128    1.7772    0.0000 C   0  0  0  0  0  0  0  0  0  0  0  0
    9.6448    0.7772    0.0000 C   0  0  0  0  0  0  0  0  0  0  0  0
    9.6448    1.7772    0.0000 C   0  0  0  0  0  0  0  0  0  0  0  0
    8.7788    2.2772    0.0000 C   0  0  0  0  0  0  0  0  0  0  0  0
   10.5388    0.2426    0.0000 C   0  0  0  0  0  0  0  0  0  0  0  0
   11.3874   -1.2674    0.0000 C   0  0  0  0  0  0  0  0  0  0  0  0
   12.2360   -2.7773    0.0000 C   0  0  0  0  0  0  0  0  0  0  0  0
   11.3759   -2.2673    0.0000 C   0  0  0  0  0  0  0  0  0  0  0  0
   13.1078   -2.2873    0.0000 C   0  0  0  0  0  0  0  0  0  0  0  0
   12.2592   -0.7774    0.0000 C   0  0  0  0  0  0  0  0  0  0  0  0
    7.0468    3.2772    0.0000 C   0  0  0  0  0  0  0  0  0  0  0  0
   11.4449    1.7980    0.0000 C   0  0  0  0  0  0  0  0  0  0  0  0
   13.1194   -1.2874    0.0000 C   0  0  0  0  0  0  0  0  0  0  0  0
   12.2245   -3.7772    0.0000 C   0  0  0  0  0  0  0  0  0  0  0  0
   14.8397   -2.3074    0.0000 C   0  0  0  0  0  0  0  0  0  0  0  0
    6.1808    3.7772    0.0000 C   0  0  0  0  0  0  0  0  0  0  0  0
   15.6999   -2.8173    0.0000 C   0  0  0  0  0  0  0  0  0  0  0  0
   16.5717   -2.3274    0.0000 C   0  0  0  0  0  0  0  0  0  0  0  0
   14.8513   -1.3074    0.0000 C   0  0  0  0  0  0  0  0  0  0  0  0
   15.7230   -0.8175    0.0000 C   0  0  0  0  0  0  0  0  0  0  0  0
   18.1072   -1.8451    0.0000 C   0  0  0  0  0  0  0  0  0  0  0  0
    4.1026   -0.0605    0.0000 H   0  0  0  0  0  0  0  0  0  0  0  0
    2.9791    1.2209    0.0000 H   0  0  0  0  0  0  0  0  0  0  0  0
    2.1675    1.0484    0.0000 H   0  0  0  0  0  0  0  0  0  0  0  0
    1.5851    0.4016    0.0000 H   0  0  0  0  0  0  0  0  0  0  0  0
    1.4984   -0.4236    0.0000 H   0  0  0  0  0  0  0  0  0  0  0  0
    1.9336   -1.1774    0.0000 H   0  0  0  0  0  0  0  0  0  0  0  0
    2.6916   -1.5149    0.0000 H   0  0  0  0  0  0  0  0  0  0  0  0
    4.4487    1.3972    0.0000 H   0  0  0  0  0  0  0  0  0  0  0  0
    3.8064   -1.8472    0.0000 H   0  0  0  0  0  0  0  0  0  0  0  0
    4.6820   -1.8013    0.0000 H   0  0  0  0  0  0  0  0  0  0  0  0
    4.6362   -0.9257    0.0000 H   0  0  0  0  0  0  0  0  0  0  0  0
    7.0468   -0.3428    0.0000 H   0  0  0  0  0  0  0  0  0  0  0  0
    8.7788   -0.3428    0.0000 H   0  0  0  0  0  0  0  0  0  0  0  0
    8.7788    2.8972    0.0000 H   0  0  0  0  0  0  0  0  0  0  0  0
    9.9868   -1.0612    0.0000 H   0  0  0  0  0  0  0  0  0  0  0  0
   10.8354   -2.5711    0.0000 H   0  0  0  0  0  0  0  0  0  0  0  0
   12.2663   -0.1575    0.0000 H   0  0  0  0  0  0  0  0  0  0  0  0
    7.6574    3.1696    0.0000 H   0  0  0  0  0  0  0  0  0  0  0  0
    7.2588    3.8598    0.0000 H   0  0  0  0  0  0  0  0  0  0  0  0
   11.9806    2.1101    0.0000 H   0  0  0  0  0  0  0  0  0  0  0  0
   13.6598   -0.9836    0.0000 H   0  0  0  0  0  0  0  0  0  0  0  0
   11.6045   -3.7700    0.0000 H   0  0  0  0  0  0  0  0  0  0  0  0
   12.2173   -4.3972    0.0000 H   0  0  0  0  0  0  0  0  0  0  0  0
   12.8444   -3.7844    0.0000 H   0  0  0  0  0  0  0  0  0  0  0  0
    6.4908    4.3142    0.0000 H   0  0  0  0  0  0  0  0  0  0  0  0
    5.6438    4.0872    0.0000 H   0  0  0  0  0  0  0  0  0  0  0  0
    5.8708    3.2403    0.0000 H   0  0  0  0  0  0  0  0  0  0  0  0
   15.6927   -3.4373    0.0000 H   0  0  0  0  0  0  0  0  0  0  0  0
   14.3180   -0.9912    0.0000 H   0  0  0  0  0  0  0  0  0  0  0  0
   15.7302   -0.1975    0.0000 H   0  0  0  0  0  0  0  0  0  0  0  0
   18.7271   -1.8523    0.0000 H   0  0  0  0  0  0  0  0  0  0  0  0
  1 19  1  0  0  0  0
  2 20  2  0  0  0  0
  3 23  1  0  0  0  0
  3 33  1  0  0  0  0
  4 31  1  0  0  0  0
  4 37  1  0  0  0  0
  5 13  1  0  0  0  0
  5 16  1  0  0  0  0
  5 18  1  0  0  0  0
  6 20  1  0  0  0  0
  6 21  1  0  0  0  0
  6 55  1  0  0  0  0
  7 27  1  0  0  0  0
  7 28  1  0  0  0  0
  7 58  1  0  0  0  0
  8 25  1  0  0  0  0
  8 34  2  0  0  0  0
  9 27  2  0  0  0  0
  9 34  1  0  0  0  0
 10 12  1  0  0  0  0
 10 40  1  0  0  0  0
 10 42  1  0  0  0  0
 11 40  2  0  0  0  0
 11 43  1  0  0  0  0
 12 43  2  0  0  0  0
 13 14  1  0  0  0  0
 13 17  1  6  0  0  0
 13 44  1  0  0  0  0
 14 15  1  0  0  0  0
 14 45  1  0  0  0  0
 14 46  1  0  0  0  0
 15 16  1  0  0  0  0
 15 47  1  0  0  0  0
 15 48  1  0  0  0  0
 16 49  1  0  0  0  0
 16 50  1  0  0  0  0
 17 19  2  0  0  0  0
 17 51  1  0  0  0  0
 18 52  1  0  0  0  0
 18 53  1  0  0  0  0
 18 54  1  0  0  0  0
 19 20  1  0  0  0  0
 21 22  1  0  0  0  0
 21 23  2  0  0  0  0
 22 24  2  0  0  0  0
 22 56  1  0  0  0  0
 23 26  1  0  0  0  0
 24 25  1  0  0  0  0
 24 27  1  0  0  0  0
 25 26  2  0  0  0  0
 26 57  1  0  0  0  0
 28 30  2  0  0  0  0
 28 32  1  0  0  0  0
 29 30  1  0  0  0  0
 29 31  2  0  0  0  0
 29 36  1  0  0  0  0
 30 59  1  0  0  0  0
 31 35  1  0  0  0  0
 32 35  2  0  0  0  0
 32 60  1  0  0  0  0
 33 38  1  0  0  0  0
 33 61  1  0  0  0  0
 33 62  1  0  0  0  0
 34 63  1  0  0  0  0
 35 64  1  0  0  0  0
 36 65  1  0  0  0  0
 36 66  1  0  0  0  0
 36 67  1  0  0  0  0
 37 39  2  0  0  0  0
 37 41  1  0  0  0  0
 38 68  1  0  0  0  0
 38 69  1  0  0  0  0
 38 70  1  0  0  0  0
 39 40  1  0  0  0  0
 39 71  1  0  0  0  0
 41 42  2  0  0  0  0
 41 72  1  0  0  0  0
 42 73  1  0  0  0  0
 43 74  1  0  0  0  0
M  END
> <PUBCHEM_COMPOUND_CID>
137535407

> <PUBCHEM_COMPOUND_CANONICALIZED>
1

> <PUBCHEM_CACTVS_COMPLEXITY>
975

> <PUBCHEM_CACTVS_HBOND_ACCEPTOR>
10

> <PUBCHEM_CACTVS_HBOND_DONOR>
2

> <PUBCHEM_CACTVS_ROTATABLE_BOND>
9

> <PUBCHEM_CACTVS_SUBSKEYS>
AAADceB78QAAAAAAAAAAAAAAAAAAAWLAAAA8eIEAAAAAAFix/gAAHwAYAAAADCzhnwY/9v/IFACqAzd3dACSjCsxoqAd2CA/bNiOLuLE+duHvCju3BvY6aew0CMOIECAQgAKEABAgQCEABQgAAAAAAAAAA==

> <PUBCHEM_IUPAC_OPENEYE_NAME>
(Z)-N-[7-ethoxy-4-[3-methyl-4-([1,2,4]triazolo[1,5-a]pyridin-7-yloxy)anilino]quinazolin-6-yl]-2-fluoro-3-[(2R)-1-methylpyrrolidin-2-yl]prop-2-enamide

> <PUBCHEM_IUPAC_CAS_NAME>
(Z)-N-[7-ethoxy-4-[3-methyl-4-([1,2,4]triazolo[1,5-a]pyridin-7-yloxy)anilino]-6-quinazolinyl]-2-fluoro-3-[(2R)-1-methyl-2-pyrrolidinyl]-2-propenamide

> <PUBCHEM_IUPAC_NAME_MARKUP>
(<I>Z</I>)-<I>N</I>-[7-ethoxy-4-[3-methyl-4-([1,2,4]triazolo[1,5-a]pyridin-7-yloxy)anilino]quinazolin-6-yl]-2-fluoro-3-[(2<I>R</I>)-1-methylpyrrolidin-2-yl]prop-2-enamide

> <PUBCHEM_IUPAC_NAME>
(Z)-N-[7-ethoxy-4-[3-methyl-4-([1,2,4]triazolo[1,5-a]pyridin-7-yloxy)anilino]quinazolin-6-yl]-2-fluoro-3-[(2R)-1-methylpyrrolidin-2-yl]prop-2-enamide

> <PUBCHEM_IUPAC_SYSTEMATIC_NAME>
(Z)-N-[7-ethoxy-4-[[3-methyl-4-([1,2,4]triazolo[1,5-a]pyridin-7-yloxy)phenyl]amino]quinazolin-6-yl]-2-fluoranyl-3-[(2R)-1-methylpyrrolidin-2-yl]prop-2-enamide

> <PUBCHEM_IUPAC_TRADITIONAL_NAME>
(Z)-N-[7-ethoxy-4-[3-methyl-4-([1,2,4]triazolo[1,5-a]pyridin-7-yloxy)anilino]quinazolin-6-yl]-2-fluoro-3-[(2R)-1-methylpyrrolidin-2-yl]acrylamide

> <PUBCHEM_IUPAC_INCHI>
InChI=1S/C31H31FN8O3/c1-4-42-28-16-25-23(15-26(28)38-31(41)24(32)13-21-6-5-10-39(21)3)30(35-17-33-25)37-20-7-8-27(19(2)12-20)43-22-9-11-40-29(14-22)34-18-36-40/h7-9,11-18,21H,4-6,10H2,1-3H3,(H,38,41)(H,33,35,37)/b24-13-/t21-/m1/s1

> <PUBCHEM_IUPAC_INCHIKEY>
HTAMCULFUCGZAM-FKYOTISTSA-N

> <PUBCHEM_XLOGP3_AA>
4.8

> <PUBCHEM_EXACT_MASS>
582.25031504

> <PUBCHEM_MOLECULAR_FORMULA>
C31H31FN8O3

> <PUBCHEM_MOLECULAR_WEIGHT>
582.6

> <PUBCHEM_OPENEYE_CAN_SMILES>
CCOC1=C(C=C2C(=C1)N=CN=C2NC3=CC(=C(C=C3)OC4=CC5=NC=NN5C=C4)C)NC(=O)C(=CC6CCCN6C)F

> <PUBCHEM_OPENEYE_ISO_SMILES>
CCOC1=C(C=C2C(=C1)N=CN=C2NC3=CC(=C(C=C3)OC4=CC5=NC=NN5C=C4)C)NC(=O)/C(=C/[C@H]6CCCN6C)/F

> <PUBCHEM_CACTVS_TPSA>
119

> <PUBCHEM_MONOISOTOPIC_WEIGHT>
582.25031504

> <PUBCHEM_TOTAL_CHARGE>
0

> <PUBCHEM_HEAVY_ATOM_COUNT>
43

> <PUBCHEM_ATOM_DEF_STEREO_COUNT>
1

> <PUBCHEM_ATOM_UDEF_STEREO_COUNT>
0

> <PUBCHEM_BOND_DEF_STEREO_COUNT>
1

> <PUBCHEM_BOND_UDEF_STEREO_COUNT>
0

> <PUBCHEM_ISOTOPIC_ATOM_COUNT>
0

> <PUBCHEM_COMPONENT_COUNT>
1

> <PUBCHEM_CACTVS_TAUTO_COUNT>
-1

> <PUBCHEM_COORDINATE_TYPE>
1
5
255

> <PUBCHEM_BONDANNOTATIONS>
10  12  8
10  40  8
10  42  8
11  40  8
11  43  8
12  43  8
13  17  6
21  22  8
21  23  8
22  24  8
23  26  8
24  25  8
24  27  8
25  26  8
28  30  8
28  32  8
29  30  8
29  31  8
31  35  8
32  35  8
37  39  8
37  41  8
39  40  8
41  42  8
8  25  8
8  34  8
9  27  8
9  34  8

$$$$
155923038
  -OEChem-11282412102D

 70 71  0     0  0  0  0  0  0999 V2000
    5.7331    2.0369    0.0000 O   0  0  0  0  0  0  0  0  0  0  0  0
    4.8671    2.5369    0.0000 O   0  0  0  0  0  0  0  0  0  0  0  0
    9.0453   10.3413    0.0000 O   0  0  0  0  0  0  0  0  0  0  0  0
    5.5812   12.3413    0.0000 O   0  0  0  0  0  0  0  0  0  0  0  0
    7.3133   10.3413    0.0000 O   0  0  0  0  0  0  0  0  0  0  0  0
    6.4473   10.8413    0.0000 O   0  0  0  0  0  0  0  0  0  0  0  0
    9.2135    5.0715    0.0000 N   0  0  0  0  0  0  0  0  0  0  0  0
    9.2251    2.0023    0.0000 N   0  0  0  0  0  0  0  0  0  0  0  0
    5.7331    4.0369    0.0000 N   0  0  0  0  0  0  0  0  0  0  0  0
    1.4030    3.5369    0.0000 N   0  0  0  0  0  0  0  0  0  0  0  0
   11.8594    4.5644    0.0000 N   0  0  0  0  0  0  0  0  0  0  0  0
    8.3312    3.5369    0.0000 C   0  0  0  0  0  0  0  0  0  0  0  0
    9.2251    4.0716    0.0000 C   0  0  0  0  0  0  0  0  0  0  0  0
    8.3312    2.5369    0.0000 C   0  0  0  0  0  0  0  0  0  0  0  0
    6.5991    3.5369    0.0000 C   0  0  0  0  0  0  0  0  0  0  0  0
    7.4651    4.0369    0.0000 C   0  0  0  0  0  0  0  0  0  0  0  0
    6.5991    2.5369    0.0000 C   0  0  0  0  0  0  0  0  0  0  0  0
    7.4651    2.0369    0.0000 C   0  0  0  0  0  0  0  0  0  0  0  0
   10.1312    3.5578    0.0000 C   0  0  0  0  0  0  0  0  0  0  0  0
   10.1312    2.5161    0.0000 C   0  0  0  0  0  0  0  0  0  0  0  0
   10.0737    5.5815    0.0000 C   0  0  0  0  0  0  0  0  0  0  0  0
    5.7331    1.0369    0.0000 C   0  0  0  0  0  0  0  0  0  0  0  0
    4.8671    3.5369    0.0000 C   0  0  0  0  0  0  0  0  0  0  0  0
   10.9455    5.0916    0.0000 C   0  0  0  0  0  0  0  0  0  0  0  0
   10.0622    6.5814    0.0000 C   0  0  0  0  0  0  0  0  0  0  0  0
    2.2690    4.0369    0.0000 C   0  0  0  0  0  0  0  0  0  0  0  0
    4.0010    4.0369    0.0000 C   0  0  0  0  0  0  0  0  0  0  0  0
   10.9953    4.0611    0.0000 C   0  0  0  0  0  0  0  0  0  0  0  0
   11.8057    5.6015    0.0000 C   0  0  0  0  0  0  0  0  0  0  0  0
   10.9224    7.0914    0.0000 C   0  0  0  0  0  0  0  0  0  0  0  0
    3.1350    3.5369    0.0000 C   0  0  0  0  0  0  0  0  0  0  0  0
    4.8671    0.5369    0.0000 C   0  0  0  0  0  0  0  0  0  0  0  0
   11.7941    6.6015    0.0000 C   0  0  0  0  0  0  0  0  0  0  0  0
    0.5369    4.0369    0.0000 C   0  0  0  0  0  0  0  0  0  0  0  0
    1.4030    2.5369    0.0000 C   0  0  0  0  0  0  0  0  0  0  0  0
   12.6774    5.1116    0.0000 C   0  0  0  0  0  0  0  0  0  0  0  0
   13.5492    4.6216    0.0000 C   0  0  0  0  0  0  0  0  0  0  0  0
    8.1793   11.8413    0.0000 C   0  0  0  0  0  0  0  0  0  0  0  0
    7.3133   12.3413    0.0000 C   0  0  0  0  0  0  0  0  0  0  0  0
    8.1793   10.8413    0.0000 C   0  0  0  0  0  0  0  0  0  0  0  0
    6.4473   11.8413    0.0000 C   0  0  0  0  0  0  0  0  0  0  0  0
    7.4651    4.6569    0.0000 H   0  0  0  0  0  0  0  0  0  0  0  0
    7.4651    1.4169    0.0000 H   0  0  0  0  0  0  0  0  0  0  0  0
    8.6731    5.3753    0.0000 H   0  0  0  0  0  0  0  0  0  0  0  0
    5.7331    4.6569    0.0000 H   0  0  0  0  0  0  0  0  0  0  0  0
   10.6669    2.2040    0.0000 H   0  0  0  0  0  0  0  0  0  0  0  0
    5.9451    0.4543    0.0000 H   0  0  0  0  0  0  0  0  0  0  0  0
    6.3437    1.1446    0.0000 H   0  0  0  0  0  0  0  0  0  0  0  0
   10.9526    4.4716    0.0000 H   0  0  0  0  0  0  0  0  0  0  0  0
    9.5217    6.8852    0.0000 H   0  0  0  0  0  0  0  0  0  0  0  0
    2.6675    4.5119    0.0000 H   0  0  0  0  0  0  0  0  0  0  0  0
    1.8705    4.5119    0.0000 H   0  0  0  0  0  0  0  0  0  0  0  0
    4.0010    4.6569    0.0000 H   0  0  0  0  0  0  0  0  0  0  0  0
   10.9152    7.7114    0.0000 H   0  0  0  0  0  0  0  0  0  0  0  0
    3.1350    2.9169    0.0000 H   0  0  0  0  0  0  0  0  0  0  0  0
    4.5571    1.0739    0.0000 H   0  0  0  0  0  0  0  0  0  0  0  0
    4.3301    0.2269    0.0000 H   0  0  0  0  0  0  0  0  0  0  0  0
    5.1771    0.0000    0.0000 H   0  0  0  0  0  0  0  0  0  0  0  0
   12.3274    6.9177    0.0000 H   0  0  0  0  0  0  0  0  0  0  0  0
    0.8469    4.5739    0.0000 H   0  0  0  0  0  0  0  0  0  0  0  0
    0.0000    4.3469    0.0000 H   0  0  0  0  0  0  0  0  0  0  0  0
    0.2269    3.5000    0.0000 H   0  0  0  0  0  0  0  0  0  0  0  0
    0.7830    2.5369    0.0000 H   0  0  0  0  0  0  0  0  0  0  0  0
    1.4030    1.9169    0.0000 H   0  0  0  0  0  0  0  0  0  0  0  0
    2.0230    2.5369    0.0000 H   0  0  0  0  0  0  0  0  0  0  0  0
   14.0896    4.3179    0.0000 H   0  0  0  0  0  0  0  0  0  0  0  0
    8.7162   12.1513    0.0000 H   0  0  0  0  0  0  0  0  0  0  0  0
    7.3133   12.9613    0.0000 H   0  0  0  0  0  0  0  0  0  0  0  0
    9.0453    9.7213    0.0000 H   0  0  0  0  0  0  0  0  0  0  0  0
    5.0443   12.0313    0.0000 H   0  0  0  0  0  0  0  0  0  0  0  0
  1 17  1  0  0  0  0
  1 22  1  0  0  0  0
  2 23  2  0  0  0  0
  3 40  1  0  0  0  0
  3 69  1  0  0  0  0
  4 41  1  0  0  0  0
  4 70  1  0  0  0  0
  5 40  2  0  0  0  0
  6 41  2  0  0  0  0
  7 13  1  0  0  0  0
  7 21  1  0  0  0  0
  7 44  1  0  0  0  0
  8 14  1  0  0  0  0
  8 20  2  0  0  0  0
  9 15  1  0  0  0  0
  9 23  1  0  0  0  0
  9 45  1  0  0  0  0
 10 26  1  0  0  0  0
 10 34  1  0  0  0  0
 10 35  1  0  0  0  0
 11 28  3  0  0  0  0
 12 13  1  0  0  0  0
 12 14  1  0  0  0  0
 12 16  2  0  0  0  0
 13 19  2  0  0  0  0
 14 18  2  0  0  0  0
 15 16  1  0  0  0  0
 15 17  2  0  0  0  0
 16 42  1  0  0  0  0
 17 18  1  0  0  0  0
 18 43  1  0  0  0  0
 19 20  1  0  0  0  0
 19 28  1  0  0  0  0
 20 46  1  0  0  0  0
 21 24  1  0  0  0  0
 21 25  2  0  0  0  0
 22 32  1  0  0  0  0
 22 47  1  0  0  0  0
 22 48  1  0  0  0  0
 23 27  1  0  0  0  0
 24 29  2  0  0  0  0
 24 49  1  0  0  0  0
 25 30  1  0  0  0  0
 25 50  1  0  0  0  0
 26 31  1  0  0  0  0
 26 51  1  0  0  0  0
 26 52  1  0  0  0  0
 27 31  2  0  0  0  0
 27 53  1  0  0  0  0
 29 33  1  0  0  0  0
 29 36  1  0  0  0  0
 30 33  2  0  0  0  0
 30 54  1  0  0  0  0
 31 55  1  0  0  0  0
 32 56  1  0  0  0  0
 32 57  1  0  0  0  0
 32 58  1  0  0  0  0
 33 59  1  0  0  0  0
 34 60  1  0  0  0  0
 34 61  1  0  0  0  0
 34 62  1  0  0  0  0
 35 63  1  0  0  0  0
 35 64  1  0  0  0  0
 35 65  1  0  0  0  0
 36 37  3  0  0  0  0
 37 66  1  0  0  0  0
 38 39  2  0  0  0  0
 38 40  1  0  0  0  0
 38 67  1  0  0  0  0
 39 41  1  0  0  0  0
 39 68  1  0  0  0  0
M  END
> <PUBCHEM_COMPOUND_CID>
155923038

> <PUBCHEM_COMPOUND_CANONICALIZED>
1

> <PUBCHEM_CACTVS_COMPLEXITY>
897

> <PUBCHEM_CACTVS_HBOND_ACCEPTOR>
10

> <PUBCHEM_CACTVS_HBOND_DONOR>
4

> <PUBCHEM_CACTVS_ROTATABLE_BOND>
11

> <PUBCHEM_CACTVS_SUBSKEYS>
AAADceB7uAAAAAAAAAAAAAAAAAAAAAAAAAA8YIAAAAAAAACx9AAAHgAQCAAADAzhngY+zvPIFgD4HzX3XAiiiCAxIiAI2CA/bNgOpuLE8duHPCjm1BnY+Y+Q0OMOIACAQgACEABAAQCEAAQgAAAAAAAAAA==

> <PUBCHEM_IUPAC_OPENEYE_NAME>
(E)-N-[3-cyano-7-ethoxy-4-(3-ethynylanilino)-6-quinolyl]-4-(dimethylamino)but-2-enamide;maleic acid

> <PUBCHEM_IUPAC_CAS_NAME>
(Z)-2-butenedioic acid;(E)-N-[3-cyano-7-ethoxy-4-(3-ethynylanilino)-6-quinolinyl]-4-(dimethylamino)-2-butenamide

> <PUBCHEM_IUPAC_NAME_MARKUP>
(<I>Z</I>)-but-2-enedioic acid;(<I>E</I>)-<I>N</I>-[3-cyano-7-ethoxy-4-(3-ethynylanilino)quinolin-6-yl]-4-(dimethylamino)but-2-enamide

> <PUBCHEM_IUPAC_NAME>
(Z)-but-2-enedioic acid;(E)-N-[3-cyano-7-ethoxy-4-(3-ethynylanilino)quinolin-6-yl]-4-(dimethylamino)but-2-enamide

> <PUBCHEM_IUPAC_SYSTEMATIC_NAME>
(Z)-but-2-enedioic acid;(E)-N-[3-cyano-7-ethoxy-4-[(3-ethynylphenyl)amino]quinolin-6-yl]-4-(dimethylamino)but-2-enamide

> <PUBCHEM_IUPAC_TRADITIONAL_NAME>
(E)-N-[3-cyano-7-ethoxy-4-(3-ethynylanilino)-6-quinolyl]-4-(dimethylamino)but-2-enamide;maleic acid

> <PUBCHEM_IUPAC_INCHI>
InChI=1S/C26H25N5O2.C4H4O4/c1-5-18-9-7-10-20(13-18)29-26-19(16-27)17-28-22-15-24(33-6-2)23(14-21(22)26)30-25(32)11-8-12-31(3)4;5-3(6)1-2-4(7)8/h1,7-11,13-15,17H,6,12H2,2-4H3,(H,28,29)(H,30,32);1-2H,(H,5,6)(H,7,8)/b11-8+;2-1-

> <PUBCHEM_IUPAC_INCHIKEY>
AXQMBLZSKCUMJL-CNEOMQSYSA-N

> <PUBCHEM_EXACT_MASS>
555.21178366

> <PUBCHEM_MOLECULAR_FORMULA>
C30H29N5O6

> <PUBCHEM_MOLECULAR_WEIGHT>
555.6

> <PUBCHEM_OPENEYE_CAN_SMILES>
CCOC1=C(C=C2C(=C1)N=CC(=C2NC3=CC=CC(=C3)C#C)C#N)NC(=O)C=CCN(C)C.C(=CC(=O)O)C(=O)O

> <PUBCHEM_OPENEYE_ISO_SMILES>
CCOC1=C(C=C2C(=C1)N=CC(=C2NC3=CC=CC(=C3)C#C)C#N)NC(=O)/C=C/CN(C)C.C(=C\C(=O)O)\C(=O)O

> <PUBCHEM_CACTVS_TPSA>
165

> <PUBCHEM_MONOISOTOPIC_WEIGHT>
555.21178366

> <PUBCHEM_TOTAL_CHARGE>
0

> <PUBCHEM_HEAVY_ATOM_COUNT>
41

> <PUBCHEM_ATOM_DEF_STEREO_COUNT>
0

> <PUBCHEM_ATOM_UDEF_STEREO_COUNT>
0

> <PUBCHEM_BOND_DEF_STEREO_COUNT>
2

> <PUBCHEM_BOND_UDEF_STEREO_COUNT>
0

> <PUBCHEM_ISOTOPIC_ATOM_COUNT>
0

> <PUBCHEM_COMPONENT_COUNT>
2

> <PUBCHEM_CACTVS_TAUTO_COUNT>
-1

> <PUBCHEM_COORDINATE_TYPE>
1
5
255

> <PUBCHEM_BONDANNOTATIONS>
12  13  8
12  14  8
12  16  8
13  19  8
14  18  8
15  16  8
15  17  8
17  18  8
19  20  8
21  24  8
21  25  8
24  29  8
25  30  8
29  33  8
30  33  8
8  14  8
8  20  8

$$$$
163377372
  -OEChem-11282412102D

 64 67  0     0  0  0  0  0  0999 V2000
    4.7094    0.0000    0.0000 Cl  0  0  0  0  0  0  0  0  0  0  0  0
    5.7935    7.9614    0.0000 F   0  0  0  0  0  0  0  0  0  0  0  0
    4.4579    9.4500    0.0000 O   0  0  0  0  0  0  0  0  0  0  0  0
    7.7988    3.1111    0.0000 O   0  0  0  0  0  0  0  0  0  0  0  0
    3.2152    4.0384    0.0000 N   0  0  0  0  0  0  0  0  0  0  0  0
    1.4030    3.8432    0.0000 N   0  0  0  0  0  0  0  0  0  0  0  0
    0.5369    5.3432    0.0000 N   0  0  0  0  0  0  0  0  0  0  0  0
    1.4030    6.8432    0.0000 N   0  0  0  0  0  0  0  0  0  0  0  0
    7.7988    4.8432    0.0000 N   0  0  0  0  0  0  0  0  0  0  0  0
    2.8115    9.9881    0.0000 N   0  0  0  0  0  0  0  0  0  0  0  0
    4.1007   11.1448    0.0000 N   0  0  0  0  0  0  0  0  0  0  0  0
    3.7988    4.8432    0.0000 C   0  0  0  0  0  0  0  0  0  0  0  0
    3.2152    5.6479    0.0000 C   0  0  0  0  0  0  0  0  0  0  0  0
    2.2690    5.3432    0.0000 C   0  0  0  0  0  0  0  0  0  0  0  0
    2.2690    4.3432    0.0000 C   0  0  0  0  0  0  0  0  0  0  0  0
    4.7988    4.8432    0.0000 C   0  0  0  0  0  0  0  0  0  0  0  0
    3.5259    6.5984    0.0000 C   0  0  0  0  0  0  0  0  0  0  0  0
    3.5259    3.0879    0.0000 C   0  0  0  0  0  0  0  0  0  0  0  0
    1.4030    5.8432    0.0000 C   0  0  0  0  0  0  0  0  0  0  0  0
    5.2988    3.9771    0.0000 C   0  0  0  0  0  0  0  0  0  0  0  0
    5.2988    5.7092    0.0000 C   0  0  0  0  0  0  0  0  0  0  0  0
    4.5044    6.8046    0.0000 C   0  0  0  0  0  0  0  0  0  0  0  0
    2.8580    7.3427    0.0000 C   0  0  0  0  0  0  0  0  0  0  0  0
    6.2988    3.9771    0.0000 C   0  0  0  0  0  0  0  0  0  0  0  0
    6.2988    5.7092    0.0000 C   0  0  0  0  0  0  0  0  0  0  0  0
    6.7988    4.8432    0.0000 C   0  0  0  0  0  0  0  0  0  0  0  0
    0.5369    4.3432    0.0000 C   0  0  0  0  0  0  0  0  0  0  0  0
    4.8150    7.7552    0.0000 C   0  0  0  0  0  0  0  0  0  0  0  0
    3.1687    8.2932    0.0000 C   0  0  0  0  0  0  0  0  0  0  0  0
    4.1472    8.4995    0.0000 C   0  0  0  0  0  0  0  0  0  0  0  0
    8.2988    3.9771    0.0000 C   0  0  0  0  0  0  0  0  0  0  0  0
    3.7900   10.1943    0.0000 C   0  0  0  0  0  0  0  0  0  0  0  0
    9.2988    3.9771    0.0000 C   0  0  0  0  0  0  0  0  0  0  0  0
    9.7988    3.1111    0.0000 C   0  0  0  0  0  0  0  0  0  0  0  0
    2.1437   10.7324    0.0000 C   0  0  0  0  0  0  0  0  0  0  0  0
    9.7988    4.8432    0.0000 C   0  0  0  0  0  0  0  0  0  0  0  0
    3.4328   11.8891    0.0000 C   0  0  0  0  0  0  0  0  0  0  0  0
    2.4543   11.6829    0.0000 C   0  0  0  0  0  0  0  0  0  0  0  0
    1.1652   10.5261    0.0000 C   0  0  0  0  0  0  0  0  0  0  0  0
    2.9366    2.8953    0.0000 H   0  0  0  0  0  0  0  0  0  0  0  0
    3.7185    2.4986    0.0000 H   0  0  0  0  0  0  0  0  0  0  0  0
    4.1152    3.2805    0.0000 H   0  0  0  0  0  0  0  0  0  0  0  0
    4.9888    3.4402    0.0000 H   0  0  0  0  0  0  0  0  0  0  0  0
    4.9888    6.2461    0.0000 H   0  0  0  0  0  0  0  0  0  0  0  0
    4.9184    6.3432    0.0000 H   0  0  0  0  0  0  0  0  0  0  0  0
    2.2514    7.2149    0.0000 H   0  0  0  0  0  0  0  0  0  0  0  0
    6.6088    3.4402    0.0000 H   0  0  0  0  0  0  0  0  0  0  0  0
    6.6088    6.2461    0.0000 H   0  0  0  0  0  0  0  0  0  0  0  0
    0.0000    4.0332    0.0000 H   0  0  0  0  0  0  0  0  0  0  0  0
    2.7546    8.7547    0.0000 H   0  0  0  0  0  0  0  0  0  0  0  0
    0.8660    7.1532    0.0000 H   0  0  0  0  0  0  0  0  0  0  0  0
    1.9399    7.1532    0.0000 H   0  0  0  0  0  0  0  0  0  0  0  0
    8.1088    5.3801    0.0000 H   0  0  0  0  0  0  0  0  0  0  0  0
    9.2619    2.8011    0.0000 H   0  0  0  0  0  0  0  0  0  0  0  0
   10.1088    2.5742    0.0000 H   0  0  0  0  0  0  0  0  0  0  0  0
   10.3358    3.4211    0.0000 H   0  0  0  0  0  0  0  0  0  0  0  0
   10.4188    4.8432    0.0000 H   0  0  0  0  0  0  0  0  0  0  0  0
    9.4888    5.3801    0.0000 H   0  0  0  0  0  0  0  0  0  0  0  0
    3.6254   12.4784    0.0000 H   0  0  0  0  0  0  0  0  0  0  0  0
    2.0403   12.1444    0.0000 H   0  0  0  0  0  0  0  0  0  0  0  0
    1.0373   11.1328    0.0000 H   0  0  0  0  0  0  0  0  0  0  0  0
    0.5585   10.3983    0.0000 H   0  0  0  0  0  0  0  0  0  0  0  0
    1.2930    9.9195    0.0000 H   0  0  0  0  0  0  0  0  0  0  0  0
    5.7094    0.0000    0.0000 H   0  0  0  0  0  0  0  0  0  0  0  0
  1 64  1  0  0  0  0
  2 28  1  0  0  0  0
  3 30  1  0  0  0  0
  3 32  1  0  0  0  0
  4 31  2  0  0  0  0
  5 12  1  0  0  0  0
  5 15  1  0  0  0  0
  5 18  1  0  0  0  0
  6 15  2  0  0  0  0
  6 27  1  0  0  0  0
  7 19  1  0  0  0  0
  7 27  2  0  0  0  0
  8 19  1  0  0  0  0
  8 51  1  0  0  0  0
  8 52  1  0  0  0  0
  9 26  1  0  0  0  0
  9 31  1  0  0  0  0
  9 53  1  0  0  0  0
 10 32  1  0  0  0  0
 10 35  2  0  0  0  0
 11 32  2  0  0  0  0
 11 37  1  0  0  0  0
 12 13  2  0  0  0  0
 12 16  1  0  0  0  0
 13 14  1  0  0  0  0
 13 17  1  0  0  0  0
 14 15  1  0  0  0  0
 14 19  2  0  0  0  0
 16 20  2  0  0  0  0
 16 21  1  0  0  0  0
 17 22  2  0  0  0  0
 17 23  1  0  0  0  0
 18 40  1  0  0  0  0
 18 41  1  0  0  0  0
 18 42  1  0  0  0  0
 20 24  1  0  0  0  0
 20 43  1  0  0  0  0
 21 25  2  0  0  0  0
 21 44  1  0  0  0  0
 22 28  1  0  0  0  0
 22 45  1  0  0  0  0
 23 29  2  0  0  0  0
 23 46  1  0  0  0  0
 24 26  2  0  0  0  0
 24 47  1  0  0  0  0
 25 26  1  0  0  0  0
 25 48  1  0  0  0  0
 27 49  1  0  0  0  0
 28 30  2  0  0  0  0
 29 30  1  0  0  0  0
 29 50  1  0  0  0  0
 31 33  1  0  0  0  0
 33 34  1  0  0  0  0
 33 36  2  0  0  0  0
 34 54  1  0  0  0  0
 34 55  1  0  0  0  0
 34 56  1  0  0  0  0
 35 38  1  0  0  0  0
 35 39  1  0  0  0  0
 36 57  1  0  0  0  0
 36 58  1  0  0  0  0
 37 38  2  0  0  0  0
 37 59  1  0  0  0  0
 38 60  1  0  0  0  0
 39 61  1  0  0  0  0
 39 62  1  0  0  0  0
 39 63  1  0  0  0  0
M  END
> <PUBCHEM_COMPOUND_CID>
163377372

> <PUBCHEM_COMPOUND_CANONICALIZED>
1

> <PUBCHEM_CACTVS_COMPLEXITY>
840

> <PUBCHEM_CACTVS_HBOND_ACCEPTOR>
8

> <PUBCHEM_CACTVS_HBOND_DONOR>
3

> <PUBCHEM_CACTVS_ROTATABLE_BOND>
6

> <PUBCHEM_CACTVS_SUBSKEYS>
AAADceB7sQAEAAAAAAAAAAAAAAAAAWAAAAA8eIEAAAAAAFgB/gAAHwAQAAAADAzBnww/9t/MFACoAzd3dACCiCkxIqAJ2CE+bNiMLuLE+duMNChs1BPI6KeQwPAOqAAAAAAAAABQAAAAAAAAAAAAAAAAAA==

> <PUBCHEM_IUPAC_OPENEYE_NAME>
N-[4-[4-amino-5-[3-fluoro-4-(4-methylpyrimidin-2-yl)oxy-phenyl]-7-methyl-pyrrolo[2,3-d]pyrimidin-6-yl]phenyl]-2-methyl-prop-2-enamide;hydrochloride

> <PUBCHEM_IUPAC_CAS_NAME>
N-[4-[4-amino-5-[3-fluoro-4-[(4-methyl-2-pyrimidinyl)oxy]phenyl]-7-methyl-6-pyrrolo[2,3-d]pyrimidinyl]phenyl]-2-methyl-2-propenamide;hydrochloride

> <PUBCHEM_IUPAC_NAME_MARKUP>
<I>N</I>-[4-[4-amino-5-[3-fluoro-4-(4-methylpyrimidin-2-yl)oxyphenyl]-7-methylpyrrolo[2,3-d]pyrimidin-6-yl]phenyl]-2-methylprop-2-enamide;hydrochloride

> <PUBCHEM_IUPAC_NAME>
N-[4-[4-amino-5-[3-fluoro-4-(4-methylpyrimidin-2-yl)oxyphenyl]-7-methylpyrrolo[2,3-d]pyrimidin-6-yl]phenyl]-2-methylprop-2-enamide;hydrochloride

> <PUBCHEM_IUPAC_SYSTEMATIC_NAME>
N-[4-[4-azanyl-5-[3-fluoranyl-4-(4-methylpyrimidin-2-yl)oxy-phenyl]-7-methyl-pyrrolo[2,3-d]pyrimidin-6-yl]phenyl]-2-methyl-prop-2-enamide;hydrochloride

> <PUBCHEM_IUPAC_TRADITIONAL_NAME>
N-[4-[4-amino-5-[3-fluoro-4-(4-methylpyrimidin-2-yl)oxy-phenyl]-7-methyl-pyrrolo[2,3-d]pyrimidin-6-yl]phenyl]-2-methyl-acrylamide;hydrochloride

> <PUBCHEM_IUPAC_INCHI>
InChI=1S/C28H24FN7O2.ClH/c1-15(2)27(37)35-19-8-5-17(6-9-19)24-22(23-25(30)32-14-33-26(23)36(24)4)18-7-10-21(20(29)13-18)38-28-31-12-11-16(3)34-28;/h5-14H,1H2,2-4H3,(H,35,37)(H2,30,32,33);1H

> <PUBCHEM_IUPAC_INCHIKEY>
HLGJPRBWELSHLI-UHFFFAOYSA-N

> <PUBCHEM_EXACT_MASS>
545.1742289

> <PUBCHEM_MOLECULAR_FORMULA>
C28H25ClFN7O2

> <PUBCHEM_MOLECULAR_WEIGHT>
546.0

> <PUBCHEM_OPENEYE_CAN_SMILES>
CC1=NC(=NC=C1)OC2=C(C=C(C=C2)C3=C(N(C4=NC=NC(=C34)N)C)C5=CC=C(C=C5)NC(=O)C(=C)C)F.Cl

> <PUBCHEM_OPENEYE_ISO_SMILES>
CC1=NC(=NC=C1)OC2=C(C=C(C=C2)C3=C(N(C4=NC=NC(=C34)N)C)C5=CC=C(C=C5)NC(=O)C(=C)C)F.Cl

> <PUBCHEM_CACTVS_TPSA>
121

> <PUBCHEM_MONOISOTOPIC_WEIGHT>
545.1742289

> <PUBCHEM_TOTAL_CHARGE>
0

> <PUBCHEM_HEAVY_ATOM_COUNT>
39

> <PUBCHEM_ATOM_DEF_STEREO_COUNT>
0

> <PUBCHEM_ATOM_UDEF_STEREO_COUNT>
0

> <PUBCHEM_BOND_DEF_STEREO_COUNT>
0

> <PUBCHEM_BOND_UDEF_STEREO_COUNT>
0

> <PUBCHEM_ISOTOPIC_ATOM_COUNT>
0

> <PUBCHEM_COMPONENT_COUNT>
2

> <PUBCHEM_CACTVS_TAUTO_COUNT>
-1

> <PUBCHEM_COORDINATE_TYPE>
1
5
255

> <PUBCHEM_BONDANNOTATIONS>
10  32  8
10  35  8
11  32  8
11  37  8
12  13  8
13  14  8
14  15  8
14  19  8
16  20  8
16  21  8
17  22  8
17  23  8
20  24  8
21  25  8
22  28  8
23  29  8
24  26  8
25  26  8
28  30  8
29  30  8
35  38  8
37  38  8
5  12  8
5  15  8
6  15  8
6  27  8
7  19  8
7  27  8

$$$$
164888921
  -OEChem-11282412102D

 73 75  0     1  0  0  0  0  0999 V2000
    1.5315    9.9558    0.0000 O   0  0  0  0  0  0  0  0  0  0  0  0
    3.8835    2.9028    0.0000 O   0  0  0  0  0  0  0  0  0  0  0  0
   13.7364    4.7302    0.0000 O   0  0  0  0  0  0  0  0  0  0  0  0
   10.2723    6.7302    0.0000 O   0  0  0  0  0  0  0  0  0  0  0  0
   12.0043    4.7302    0.0000 O   0  0  0  0  0  0  0  0  0  0  0  0
   11.1383    5.2302    0.0000 O   0  0  0  0  0  0  0  0  0  0  0  0
   11.7358    9.3492    0.0000 O   0  0  0  0  0  0  0  0  0  0  0  0
    3.0330   10.8192    0.0000 N   0  0  0  0  0  0  0  0  0  0  0  0
    2.3625    8.7539    0.0000 N   0  0  0  0  0  0  0  0  0  0  0  0
    3.8923    8.2539    0.0000 N   0  0  0  0  0  0  0  0  0  0  0  0
    0.6304    7.7539    0.0000 N   0  0  0  0  0  0  0  0  0  0  0  0
    1.4964    6.2539    0.0000 N   0  0  0  0  0  0  0  0  0  0  0  0
    5.5298    3.4409    0.0000 N   0  0  0  0  0  0  0  0  0  0  0  0
    6.8190    2.2841    0.0000 N   0  0  0  0  0  0  0  0  0  0  0  0
    3.6194   10.0092    0.0000 C   0  0  1  0  0  0  0  0  0  0  0  0
    4.5710   10.3165    0.0000 C   0  0  0  0  0  0  0  0  0  0  0  0
    4.5727   11.3165    0.0000 C   0  0  0  0  0  0  0  0  0  0  0  0
    3.6222   11.6272    0.0000 C   0  0  0  0  0  0  0  0  0  0  0  0
    3.3087    9.0586    0.0000 C   0  0  0  0  0  0  0  0  0  0  0  0
    2.0330   10.8209    0.0000 C   0  0  0  0  0  0  0  0  0  0  0  0
    2.3625    7.7539    0.0000 C   0  0  0  0  0  0  0  0  0  0  0  0
    3.3087    7.4492    0.0000 C   0  0  0  0  0  0  0  0  0  0  0  0
    1.4964    9.2539    0.0000 C   0  0  0  0  0  0  0  0  0  0  0  0
    1.4964    7.2539    0.0000 C   0  0  0  0  0  0  0  0  0  0  0  0
    3.6194    6.4987    0.0000 C   0  0  0  0  0  0  0  0  0  0  0  0
    0.6304    8.7539    0.0000 C   0  0  0  0  0  0  0  0  0  0  0  0
    1.5345   11.6878    0.0000 C   0  0  0  0  0  0  0  0  0  0  0  0
    4.5979    6.2924    0.0000 C   0  0  0  0  0  0  0  0  0  0  0  0
    2.9515    5.7544    0.0000 C   0  0  0  0  0  0  0  0  0  0  0  0
    4.9085    5.3419    0.0000 C   0  0  0  0  0  0  0  0  0  0  0  0
    3.2622    4.8038    0.0000 C   0  0  0  0  0  0  0  0  0  0  0  0
    4.2407    4.5976    0.0000 C   0  0  0  0  0  0  0  0  0  0  0  0
    1.0360   12.5547    0.0000 C   0  0  0  0  0  0  0  0  0  0  0  0
    0.5375   13.4216    0.0000 C   0  0  0  0  0  0  0  0  0  0  0  0
    4.5513    3.6471    0.0000 C   0  0  0  0  0  0  0  0  0  0  0  0
    5.8405    2.4904    0.0000 C   0  0  0  0  0  0  0  0  0  0  0  0
    5.1727    1.7461    0.0000 C   0  0  0  0  0  0  0  0  0  0  0  0
    5.4833    0.7955    0.0000 C   0  0  0  0  0  0  0  0  0  0  0  0
    7.1297    1.3336    0.0000 C   0  0  0  0  0  0  0  0  0  0  0  0
    6.4618    0.5893    0.0000 C   0  0  0  0  0  0  0  0  0  0  0  0
   12.8703    6.2302    0.0000 C   0  0  0  0  0  0  0  0  0  0  0  0
   12.0043    6.7302    0.0000 C   0  0  0  0  0  0  0  0  0  0  0  0
   12.8703    5.2302    0.0000 C   0  0  0  0  0  0  0  0  0  0  0  0
   11.1383    6.2302    0.0000 C   0  0  0  0  0  0  0  0  0  0  0  0
    4.2194    9.4071    0.0000 H   0  0  0  0  0  0  0  0  0  0  0  0
    4.6988    9.7099    0.0000 H   0  0  0  0  0  0  0  0  0  0  0  0
    5.1877   10.3803    0.0000 H   0  0  0  0  0  0  0  0  0  0  0  0
    5.1892   11.2507    0.0000 H   0  0  0  0  0  0  0  0  0  0  0  0
    4.7026   11.9228    0.0000 H   0  0  0  0  0  0  0  0  0  0  0  0
    3.8753   12.1932    0.0000 H   0  0  0  0  0  0  0  0  0  0  0  0
    3.0858   11.9381    0.0000 H   0  0  0  0  0  0  0  0  0  0  0  0
    1.4964    9.8739    0.0000 H   0  0  0  0  0  0  0  0  0  0  0  0
    0.0935    9.0639    0.0000 H   0  0  0  0  0  0  0  0  0  0  0  0
    5.0119    6.7539    0.0000 H   0  0  0  0  0  0  0  0  0  0  0  0
    2.3448    5.8822    0.0000 H   0  0  0  0  0  0  0  0  0  0  0  0
    0.9595    5.9439    0.0000 H   0  0  0  0  0  0  0  0  0  0  0  0
    2.0334    5.9439    0.0000 H   0  0  0  0  0  0  0  0  0  0  0  0
    5.5152    5.2141    0.0000 H   0  0  0  0  0  0  0  0  0  0  0  0
    2.8481    4.3424    0.0000 H   0  0  0  0  0  0  0  0  0  0  0  0
    1.0749   13.7307    0.0000 H   0  0  0  0  0  0  0  0  0  0  0  0
    0.2284   13.9591    0.0000 H   0  0  0  0  0  0  0  0  0  0  0  0
    0.0000   13.1125    0.0000 H   0  0  0  0  0  0  0  0  0  0  0  0
    5.9439    3.9024    0.0000 H   0  0  0  0  0  0  0  0  0  0  0  0
    4.5660    1.8739    0.0000 H   0  0  0  0  0  0  0  0  0  0  0  0
    5.0693    0.3341    0.0000 H   0  0  0  0  0  0  0  0  0  0  0  0
    7.7364    1.2058    0.0000 H   0  0  0  0  0  0  0  0  0  0  0  0
    6.6544    0.0000    0.0000 H   0  0  0  0  0  0  0  0  0  0  0  0
   13.4073    6.5402    0.0000 H   0  0  0  0  0  0  0  0  0  0  0  0
   12.0043    7.3502    0.0000 H   0  0  0  0  0  0  0  0  0  0  0  0
   13.7364    4.1102    0.0000 H   0  0  0  0  0  0  0  0  0  0  0  0
    9.7353    6.4202    0.0000 H   0  0  0  0  0  0  0  0  0  0  0  0
   12.2728    9.6592    0.0000 H   0  0  0  0  0  0  0  0  0  0  0  0
   11.1989    9.6592    0.0000 H   0  0  0  0  0  0  0  0  0  0  0  0
  1 20  2  0  0  0  0
  2 35  2  0  0  0  0
  3 43  1  0  0  0  0
  3 70  1  0  0  0  0
  4 44  1  0  0  0  0
  4 71  1  0  0  0  0
  5 43  2  0  0  0  0
  6 44  2  0  0  0  0
  7 72  1  0  0  0  0
  7 73  1  0  0  0  0
  8 15  1  0  0  0  0
  8 18  1  0  0  0  0
  8 20  1  0  0  0  0
  9 19  1  0  0  0  0
  9 21  1  0  0  0  0
  9 23  1  0  0  0  0
 10 19  2  0  0  0  0
 10 22  1  0  0  0  0
 11 24  2  0  0  0  0
 11 26  1  0  0  0  0
 12 24  1  0  0  0  0
 12 56  1  0  0  0  0
 12 57  1  0  0  0  0
 13 35  1  0  0  0  0
 13 36  1  0  0  0  0
 13 63  1  0  0  0  0
 14 36  1  0  0  0  0
 14 39  2  0  0  0  0
 15 16  1  0  0  0  0
 15 19  1  0  0  0  0
 15 45  1  6  0  0  0
 16 17  1  0  0  0  0
 16 46  1  0  0  0  0
 16 47  1  0  0  0  0
 17 18  1  0  0  0  0
 17 48  1  0  0  0  0
 17 49  1  0  0  0  0
 18 50  1  0  0  0  0
 18 51  1  0  0  0  0
 20 27  1  0  0  0  0
 21 22  2  0  0  0  0
 21 24  1  0  0  0  0
 22 25  1  0  0  0  0
 23 26  2  0  0  0  0
 23 52  1  0  0  0  0
 25 28  2  0  0  0  0
 25 29  1  0  0  0  0
 26 53  1  0  0  0  0
 27 33  3  0  0  0  0
 28 30  1  0  0  0  0
 28 54  1  0  0  0  0
 29 31  2  0  0  0  0
 29 55  1  0  0  0  0
 30 32  2  0  0  0  0
 30 58  1  0  0  0  0
 31 32  1  0  0  0  0
 31 59  1  0  0  0  0
 32 35  1  0  0  0  0
 33 34  1  0  0  0  0
 34 60  1  0  0  0  0
 34 61  1  0  0  0  0
 34 62  1  0  0  0  0
 36 37  2  0  0  0  0
 37 38  1  0  0  0  0
 37 64  1  0  0  0  0
 38 40  2  0  0  0  0
 38 65  1  0  0  0  0
 39 40  1  0  0  0  0
 39 66  1  0  0  0  0
 40 67  1  0  0  0  0
 41 42  2  0  0  0  0
 41 43  1  0  0  0  0
 41 68  1  0  0  0  0
 42 44  1  0  0  0  0
 42 69  1  0  0  0  0
M  END
> <PUBCHEM_COMPOUND_CID>
164888921

> <PUBCHEM_COMPOUND_CANONICALIZED>
1

> <PUBCHEM_CACTVS_COMPLEXITY>
964

> <PUBCHEM_CACTVS_HBOND_ACCEPTOR>
11

> <PUBCHEM_CACTVS_HBOND_DONOR>
5

> <PUBCHEM_CACTVS_ROTATABLE_BOND>
6

> <PUBCHEM_CACTVS_SUBSKEYS>
AAADceB7uAAAAAAAAAAAAAAAAAAAAWLAAAA8WIAAAAAAAFgB/AAAHgAQCAAADCjBnwQ/+LfMGgDoEzf3fACCgC01EqAJ2CE4dNiIbPLA3dGUNQholwLI2acYiMCOQAAAAAAAAACAAAAAAAAAAAAAAAAAAA==

> <PUBCHEM_IUPAC_OPENEYE_NAME>
4-[8-amino-3-[(2S)-1-but-2-ynoylpyrrolidin-2-yl]imidazo[1,5-a]pyrazin-1-yl]-N-(2-pyridyl)benzamide;maleic acid;hydrate

> <PUBCHEM_IUPAC_CAS_NAME>
4-[8-amino-3-[(2S)-1-(1-oxobut-2-ynyl)-2-pyrrolidinyl]-1-imidazo[1,5-a]pyrazinyl]-N-(2-pyridinyl)benzamide;(Z)-2-butenedioic acid;hydrate

> <PUBCHEM_IUPAC_NAME_MARKUP>
4-[8-amino-3-[(2<I>S</I>)-1-but-2-ynoylpyrrolidin-2-yl]imidazo[1,5-a]pyrazin-1-yl]-<I>N</I>-pyridin-2-ylbenzamide;(<I>Z</I>)-but-2-enedioic acid;hydrate

> <PUBCHEM_IUPAC_NAME>
4-[8-amino-3-[(2S)-1-but-2-ynoylpyrrolidin-2-yl]imidazo[1,5-a]pyrazin-1-yl]-N-pyridin-2-ylbenzamide;(Z)-but-2-enedioic acid;hydrate

> <PUBCHEM_IUPAC_SYSTEMATIC_NAME>
4-[8-azanyl-3-[(2S)-1-but-2-ynoylpyrrolidin-2-yl]imidazo[1,5-a]pyrazin-1-yl]-N-pyridin-2-yl-benzamide;(Z)-but-2-enedioic acid;hydrate

> <PUBCHEM_IUPAC_TRADITIONAL_NAME>
4-[8-amino-3-[(2S)-1-but-2-ynoylpyrrolidin-2-yl]imidazo[1,5-a]pyrazin-1-yl]-N-(2-pyridyl)benzamide;maleic acid;hydrate

> <PUBCHEM_IUPAC_INCHI>
InChI=1S/C26H23N7O2.C4H4O4.H2O/c1-2-6-21(34)32-15-5-7-19(32)25-31-22(23-24(27)29-14-16-33(23)25)17-9-11-18(12-10-17)26(35)30-20-8-3-4-13-28-20;5-3(6)1-2-4(7)8;/h3-4,8-14,16,19H,5,7,15H2,1H3,(H2,27,29)(H,28,30,35);1-2H,(H,5,6)(H,7,8);1H2/b;2-1-;/t19-;;/m0../s1

> <PUBCHEM_IUPAC_INCHIKEY>
VBDKXTXWSCEGJA-ISUPNROZSA-N

> <PUBCHEM_EXACT_MASS>
599.21284629

> <PUBCHEM_MOLECULAR_FORMULA>
C30H29N7O7

> <PUBCHEM_MOLECULAR_WEIGHT>
599.6

> <PUBCHEM_OPENEYE_CAN_SMILES>
CC#CC(=O)N1CCCC1C2=NC(=C3N2C=CN=C3N)C4=CC=C(C=C4)C(=O)NC5=CC=CC=N5.C(=CC(=O)O)C(=O)O.O

> <PUBCHEM_OPENEYE_ISO_SMILES>
CC#CC(=O)N1CCC[C@H]1C2=NC(=C3N2C=CN=C3N)C4=CC=C(C=C4)C(=O)NC5=CC=CC=N5.C(=C\C(=O)O)\C(=O)O.O

> <PUBCHEM_CACTVS_TPSA>
194

> <PUBCHEM_MONOISOTOPIC_WEIGHT>
599.21284629

> <PUBCHEM_TOTAL_CHARGE>
0

> <PUBCHEM_HEAVY_ATOM_COUNT>
44

> <PUBCHEM_ATOM_DEF_STEREO_COUNT>
1

> <PUBCHEM_ATOM_UDEF_STEREO_COUNT>
0

> <PUBCHEM_BOND_DEF_STEREO_COUNT>
1

> <PUBCHEM_BOND_UDEF_STEREO_COUNT>
0

> <PUBCHEM_ISOTOPIC_ATOM_COUNT>
0

> <PUBCHEM_COMPONENT_COUNT>
3

> <PUBCHEM_CACTVS_TAUTO_COUNT>
-1

> <PUBCHEM_COORDINATE_TYPE>
1
5
255

> <PUBCHEM_BONDANNOTATIONS>
10  19  8
10  22  8
11  24  8
11  26  8
14  36  8
14  39  8
15  45  6
21  22  8
21  24  8
23  26  8
25  28  8
25  29  8
28  30  8
29  31  8
30  32  8
31  32  8
36  37  8
37  38  8
38  40  8
39  40  8
9  19  8
9  21  8
9  23  8

$$$$
57345482
  -OEChem-11282412102D

 57 58  0     0  0  0  0  0  0999 V2000
    7.1665    2.5000    0.0000 Cl  0  0  0  0  0  0  0  0  0  0  0  0
    7.1665    0.0000    0.0000 Cl  0  0  0  0  0  0  0  0  0  0  0  0
   14.7224   10.5000    0.0000 O   0  0  0  0  0  0  0  0  0  0  0  0
    3.4641    5.0000    0.0000 O   0  0  0  0  0  0  0  0  0  0  0  0
   12.9904    9.5000    0.0000 N   0  0  0  0  0  0  0  0  0  0  0  0
    9.5263    7.5000    0.0000 N   0  0  0  0  0  0  0  0  0  0  0  0
    7.7942    7.5000    0.0000 N   0  0  0  0  0  0  0  0  0  0  0  0
    8.6602    9.0000    0.0000 N   0  0  0  0  0  0  0  0  0  0  0  0
    2.5981    6.5000    0.0000 N   0  0  0  0  0  0  0  0  0  0  0  0
    0.0000    7.0000    0.0000 N   0  0  0  0  0  0  0  0  0  0  0  0
   12.9904   10.5000    0.0000 C   0  0  0  0  0  0  0  0  0  0  0  0
   13.8564    9.0000    0.0000 C   0  0  0  0  0  0  0  0  0  0  0  0
   13.8564   11.0000    0.0000 C   0  0  0  0  0  0  0  0  0  0  0  0
   14.7224    9.5000    0.0000 C   0  0  0  0  0  0  0  0  0  0  0  0
   12.1244    9.0000    0.0000 C   0  0  0  0  0  0  0  0  0  0  0  0
   12.1244    8.0000    0.0000 C   0  0  0  0  0  0  0  0  0  0  0  0
   11.2583    9.5000    0.0000 C   0  0  0  0  0  0  0  0  0  0  0  0
   10.3923    8.0000    0.0000 C   0  0  0  0  0  0  0  0  0  0  0  0
   11.2583    7.5000    0.0000 C   0  0  0  0  0  0  0  0  0  0  0  0
   10.3923    9.0000    0.0000 C   0  0  0  0  0  0  0  0  0  0  0  0
    8.6602    8.0000    0.0000 C   0  0  0  0  0  0  0  0  0  0  0  0
    6.9282    8.0000    0.0000 C   0  0  0  0  0  0  0  0  0  0  0  0
    6.0622    7.5000    0.0000 C   0  0  0  0  0  0  0  0  0  0  0  0
    5.1962    8.0000    0.0000 C   0  0  0  0  0  0  0  0  0  0  0  0
    6.0622    6.5000    0.0000 C   0  0  0  0  0  0  0  0  0  0  0  0
    4.3301    6.5000    0.0000 C   0  0  0  0  0  0  0  0  0  0  0  0
    6.9282    9.0000    0.0000 C   0  0  0  0  0  0  0  0  0  0  0  0
    4.3301    7.5000    0.0000 C   0  0  0  0  0  0  0  0  0  0  0  0
    5.1962    6.0000    0.0000 C   0  0  0  0  0  0  0  0  0  0  0  0
    7.7942    9.5000    0.0000 C   0  0  0  0  0  0  0  0  0  0  0  0
    3.4641    6.0000    0.0000 C   0  0  0  0  0  0  0  0  0  0  0  0
    1.7320    6.0000    0.0000 C   0  0  0  0  0  0  0  0  0  0  0  0
    0.8660    6.5000    0.0000 C   0  0  0  0  0  0  0  0  0  0  0  0
   12.7783   11.0826    0.0000 H   0  0  0  0  0  0  0  0  0  0  0  0
   12.3798   10.3923    0.0000 H   0  0  0  0  0  0  0  0  0  0  0  0
   13.4579    8.5250    0.0000 H   0  0  0  0  0  0  0  0  0  0  0  0
   14.2549    8.5250    0.0000 H   0  0  0  0  0  0  0  0  0  0  0  0
   14.2549   11.4749    0.0000 H   0  0  0  0  0  0  0  0  0  0  0  0
   13.4579   11.4749    0.0000 H   0  0  0  0  0  0  0  0  0  0  0  0
   14.9345    8.9174    0.0000 H   0  0  0  0  0  0  0  0  0  0  0  0
   15.3330    9.6077    0.0000 H   0  0  0  0  0  0  0  0  0  0  0  0
   12.6613    7.6900    0.0000 H   0  0  0  0  0  0  0  0  0  0  0  0
   11.2583   10.1200    0.0000 H   0  0  0  0  0  0  0  0  0  0  0  0
   11.2583    6.8800    0.0000 H   0  0  0  0  0  0  0  0  0  0  0  0
    9.8554    9.3100    0.0000 H   0  0  0  0  0  0  0  0  0  0  0  0
    9.5263    6.8800    0.0000 H   0  0  0  0  0  0  0  0  0  0  0  0
    5.1962    8.6200    0.0000 H   0  0  0  0  0  0  0  0  0  0  0  0
    6.5991    6.1900    0.0000 H   0  0  0  0  0  0  0  0  0  0  0  0
    6.3913    9.3100    0.0000 H   0  0  0  0  0  0  0  0  0  0  0  0
    3.7932    7.8100    0.0000 H   0  0  0  0  0  0  0  0  0  0  0  0
    5.1962    5.3800    0.0000 H   0  0  0  0  0  0  0  0  0  0  0  0
    7.7942   10.1200    0.0000 H   0  0  0  0  0  0  0  0  0  0  0  0
    2.5981    7.1200    0.0000 H   0  0  0  0  0  0  0  0  0  0  0  0
    1.3335    5.5250    0.0000 H   0  0  0  0  0  0  0  0  0  0  0  0
    2.1306    5.5250    0.0000 H   0  0  0  0  0  0  0  0  0  0  0  0
    8.1665    2.5000    0.0000 H   0  0  0  0  0  0  0  0  0  0  0  0
    8.1665    0.0000    0.0000 H   0  0  0  0  0  0  0  0  0  0  0  0
  1 56  1  0  0  0  0
  2 57  1  0  0  0  0
  3 13  1  0  0  0  0
  3 14  1  0  0  0  0
  4 31  2  0  0  0  0
  5 11  1  0  0  0  0
  5 12  1  0  0  0  0
  5 15  1  0  0  0  0
  6 18  1  0  0  0  0
  6 21  1  0  0  0  0
  6 46  1  0  0  0  0
  7 21  1  0  0  0  0
  7 22  2  0  0  0  0
  8 21  2  0  0  0  0
  8 30  1  0  0  0  0
  9 31  1  0  0  0  0
  9 32  1  0  0  0  0
  9 53  1  0  0  0  0
 10 33  3  0  0  0  0
 11 13  1  0  0  0  0
 11 34  1  0  0  0  0
 11 35  1  0  0  0  0
 12 14  1  0  0  0  0
 12 36  1  0  0  0  0
 12 37  1  0  0  0  0
 13 38  1  0  0  0  0
 13 39  1  0  0  0  0
 14 40  1  0  0  0  0
 14 41  1  0  0  0  0
 15 16  2  0  0  0  0
 15 17  1  0  0  0  0
 16 19  1  0  0  0  0
 16 42  1  0  0  0  0
 17 20  2  0  0  0  0
 17 43  1  0  0  0  0
 18 19  2  0  0  0  0
 18 20  1  0  0  0  0
 19 44  1  0  0  0  0
 20 45  1  0  0  0  0
 22 23  1  0  0  0  0
 22 27  1  0  0  0  0
 23 24  2  0  0  0  0
 23 25  1  0  0  0  0
 24 28  1  0  0  0  0
 24 47  1  0  0  0  0
 25 29  2  0  0  0  0
 25 48  1  0  0  0  0
 26 28  2  0  0  0  0
 26 29  1  0  0  0  0
 26 31  1  0  0  0  0
 27 30  2  0  0  0  0
 27 49  1  0  0  0  0
 28 50  1  0  0  0  0
 29 51  1  0  0  0  0
 30 52  1  0  0  0  0
 32 33  1  0  0  0  0
 32 54  1  0  0  0  0
 32 55  1  0  0  0  0
M  END
> <PUBCHEM_COMPOUND_CID>
57345482

> <PUBCHEM_COMPOUND_CANONICALIZED>
1

> <PUBCHEM_CACTVS_COMPLEXITY>
615

> <PUBCHEM_CACTVS_HBOND_ACCEPTOR>
7

> <PUBCHEM_CACTVS_HBOND_DONOR>
4

> <PUBCHEM_CACTVS_ROTATABLE_BOND>
6

> <PUBCHEM_CACTVS_SUBSKEYS>
AAADceB7sAAGAAAAAAAAAAAAAAAAAAAAAAA8eIEAAAAAAAAB0AAAHgAQAAAADAjhngY90JfIFAC4BzV3dACCgCk1AqAJ2KE4ZNiKKLLA3dGHJQholgLYyacYiMCOQACAAAAAAACAAQAAAAAAAAAAAAAAAA==

> <PUBCHEM_IUPAC_OPENEYE_NAME>
N-(cyanomethyl)-4-[2-(4-morpholinoanilino)pyrimidin-4-yl]benzamide;dihydrochloride

> <PUBCHEM_IUPAC_CAS_NAME>
N-(cyanomethyl)-4-[2-[4-(4-morpholinyl)anilino]-4-pyrimidinyl]benzamide;dihydrochloride

> <PUBCHEM_IUPAC_NAME_MARKUP>
<I>N</I>-(cyanomethyl)-4-[2-(4-morpholin-4-ylanilino)pyrimidin-4-yl]benzamide;dihydrochloride

> <PUBCHEM_IUPAC_NAME>
N-(cyanomethyl)-4-[2-(4-morpholin-4-ylanilino)pyrimidin-4-yl]benzamide;dihydrochloride

> <PUBCHEM_IUPAC_SYSTEMATIC_NAME>
N-(cyanomethyl)-4-[2-[(4-morpholin-4-ylphenyl)amino]pyrimidin-4-yl]benzamide;dihydrochloride

> <PUBCHEM_IUPAC_TRADITIONAL_NAME>
N-(cyanomethyl)-4-[2-(4-morpholinoanilino)pyrimidin-4-yl]benzamide;dihydrochloride

> <PUBCHEM_IUPAC_INCHI>
InChI=1S/C23H22N6O2.2ClH/c24-10-12-25-22(30)18-3-1-17(2-4-18)21-9-11-26-23(28-21)27-19-5-7-20(8-6-19)29-13-15-31-16-14-29;;/h1-9,11H,12-16H2,(H,25,30)(H,26,27,28);2*1H

> <PUBCHEM_IUPAC_INCHIKEY>
IPNATXQRPWRHKD-UHFFFAOYSA-N

> <PUBCHEM_EXACT_MASS>
486.1337794

> <PUBCHEM_MOLECULAR_FORMULA>
C23H24Cl2N6O2

> <PUBCHEM_MOLECULAR_WEIGHT>
487.4

> <PUBCHEM_OPENEYE_CAN_SMILES>
C1COCCN1C2=CC=C(C=C2)NC3=NC=CC(=N3)C4=CC=C(C=C4)C(=O)NCC#N.Cl.Cl

> <PUBCHEM_OPENEYE_ISO_SMILES>
C1COCCN1C2=CC=C(C=C2)NC3=NC=CC(=N3)C4=CC=C(C=C4)C(=O)NCC#N.Cl.Cl

> <PUBCHEM_CACTVS_TPSA>
103

> <PUBCHEM_MONOISOTOPIC_WEIGHT>
486.1337794

> <PUBCHEM_TOTAL_CHARGE>
0

> <PUBCHEM_HEAVY_ATOM_COUNT>
33

> <PUBCHEM_ATOM_DEF_STEREO_COUNT>
0

> <PUBCHEM_ATOM_UDEF_STEREO_COUNT>
0

> <PUBCHEM_BOND_DEF_STEREO_COUNT>
0

> <PUBCHEM_BOND_UDEF_STEREO_COUNT>
0

> <PUBCHEM_ISOTOPIC_ATOM_COUNT>
0

> <PUBCHEM_COMPONENT_COUNT>
3

> <PUBCHEM_CACTVS_TAUTO_COUNT>
-1

> <PUBCHEM_COORDINATE_TYPE>
1
5
255

> <PUBCHEM_BONDANNOTATIONS>
15  16  8
15  17  8
16  19  8
17  20  8
18  19  8
18  20  8
22  27  8
23  24  8
23  25  8
24  28  8
25  29  8
26  28  8
26  29  8
27  30  8
7  21  8
7  22  8
8  21  8
8  30  8

$$$$
57380530
  -OEChem-11282412102D

 56 58  0     0  0  0  0  0  0999 V2000
    0.0000    6.1881    0.0000 Cl  0  0  0  0  0  0  0  0  0  0  0  0
    7.4377    0.0000    0.0000 Cl  0  0  0  0  0  0  0  0  0  0  0  0
    8.9168   10.3580    0.0000 F   0  0  0  0  0  0  0  0  0  0  0  0
    5.4595    5.3236    0.0000 O   0  0  0  0  0  0  0  0  0  0  0  0
    5.4595    7.3236    0.0000 O   0  0  0  0  0  0  0  0  0  0  0  0
    8.9399    8.3582    0.0000 O   0  0  0  0  0  0  0  0  0  0  0  0
    4.5935    2.8236    0.0000 N   0  0  0  0  0  0  0  0  0  0  0  0
    8.9515    5.2889    0.0000 N   0  0  0  0  0  0  0  0  0  0  0  0
   12.2498   10.5637    0.0000 N   0  0  0  0  0  0  0  0  0  0  0  0
    4.5935    3.8236    0.0000 C   0  0  0  0  0  0  0  0  0  0  0  0
    4.0935    4.6896    0.0000 C   0  0  0  0  0  0  0  0  0  0  0  0
    3.5935    3.8236    0.0000 C   0  0  0  0  0  0  0  0  0  0  0  0
    5.4595    4.3236    0.0000 C   0  0  0  0  0  0  0  0  0  0  0  0
    6.3255    5.8236    0.0000 C   0  0  0  0  0  0  0  0  0  0  0  0
    6.3255    6.8236    0.0000 C   0  0  0  0  0  0  0  0  0  0  0  0
    7.1915    5.3236    0.0000 C   0  0  0  0  0  0  0  0  0  0  0  0
    8.0576    5.8236    0.0000 C   0  0  0  0  0  0  0  0  0  0  0  0
    7.1915    7.3236    0.0000 C   0  0  0  0  0  0  0  0  0  0  0  0
    8.0576    6.8236    0.0000 C   0  0  0  0  0  0  0  0  0  0  0  0
    8.9515    7.3582    0.0000 C   0  0  0  0  0  0  0  0  0  0  0  0
    9.8576    6.8444    0.0000 C   0  0  0  0  0  0  0  0  0  0  0  0
   10.6487   10.3781    0.0000 C   0  0  0  0  0  0  0  0  0  0  0  0
   11.5205    9.8881    0.0000 C   0  0  0  0  0  0  0  0  0  0  0  0
    9.8001    8.8681    0.0000 C   0  0  0  0  0  0  0  0  0  0  0  0
    9.8576    5.8027    0.0000 C   0  0  0  0  0  0  0  0  0  0  0  0
    9.7886    9.8681    0.0000 C   0  0  0  0  0  0  0  0  0  0  0  0
    5.4595    8.3236    0.0000 C   0  0  0  0  0  0  0  0  0  0  0  0
   11.8342   11.4667    0.0000 C   0  0  0  0  0  0  0  0  0  0  0  0
   10.8467   11.3522    0.0000 C   0  0  0  0  0  0  0  0  0  0  0  0
   11.5321    8.8882    0.0000 C   0  0  0  0  0  0  0  0  0  0  0  0
   10.6719    8.3782    0.0000 C   0  0  0  0  0  0  0  0  0  0  0  0
   12.3241   12.3385    0.0000 C   0  0  0  0  0  0  0  0  0  0  0  0
    4.5684    5.0881    0.0000 H   0  0  0  0  0  0  0  0  0  0  0  0
    3.6185    5.0881    0.0000 H   0  0  0  0  0  0  0  0  0  0  0  0
    3.0108    4.0356    0.0000 H   0  0  0  0  0  0  0  0  0  0  0  0
    3.4858    3.2130    0.0000 H   0  0  0  0  0  0  0  0  0  0  0  0
    5.6715    3.7410    0.0000 H   0  0  0  0  0  0  0  0  0  0  0  0
    6.0701    4.4312    0.0000 H   0  0  0  0  0  0  0  0  0  0  0  0
    4.0565    2.5136    0.0000 H   0  0  0  0  0  0  0  0  0  0  0  0
    5.1304    2.5136    0.0000 H   0  0  0  0  0  0  0  0  0  0  0  0
    7.1915    4.7036    0.0000 H   0  0  0  0  0  0  0  0  0  0  0  0
    7.1915    7.9436    0.0000 H   0  0  0  0  0  0  0  0  0  0  0  0
   10.3933    7.1564    0.0000 H   0  0  0  0  0  0  0  0  0  0  0  0
   10.3933    5.4907    0.0000 H   0  0  0  0  0  0  0  0  0  0  0  0
   10.4273   11.8089    0.0000 H   0  0  0  0  0  0  0  0  0  0  0  0
   12.8579   10.4428    0.0000 H   0  0  0  0  0  0  0  0  0  0  0  0
    6.0795    8.3236    0.0000 H   0  0  0  0  0  0  0  0  0  0  0  0
    5.4595    8.9436    0.0000 H   0  0  0  0  0  0  0  0  0  0  0  0
    4.8395    8.3236    0.0000 H   0  0  0  0  0  0  0  0  0  0  0  0
   12.0725    8.5844    0.0000 H   0  0  0  0  0  0  0  0  0  0  0  0
   10.6790    7.7582    0.0000 H   0  0  0  0  0  0  0  0  0  0  0  0
   12.8646   12.0347    0.0000 H   0  0  0  0  0  0  0  0  0  0  0  0
   12.6279   12.8789    0.0000 H   0  0  0  0  0  0  0  0  0  0  0  0
   11.7836   12.6422    0.0000 H   0  0  0  0  0  0  0  0  0  0  0  0
    1.0000    6.1881    0.0000 H   0  0  0  0  0  0  0  0  0  0  0  0
    8.4377    0.0000    0.0000 H   0  0  0  0  0  0  0  0  0  0  0  0
  1 55  1  0  0  0  0
  2 56  1  0  0  0  0
  3 26  1  0  0  0  0
  4 13  1  0  0  0  0
  4 14  1  0  0  0  0
  5 15  1  0  0  0  0
  5 27  1  0  0  0  0
  6 20  1  0  0  0  0
  6 24  1  0  0  0  0
  7 10  1  0  0  0  0
  7 39  1  0  0  0  0
  7 40  1  0  0  0  0
  8 17  2  0  0  0  0
  8 25  1  0  0  0  0
  9 23  1  0  0  0  0
  9 28  1  0  0  0  0
  9 46  1  0  0  0  0
 10 11  1  0  0  0  0
 10 12  1  0  0  0  0
 10 13  1  0  0  0  0
 11 12  1  0  0  0  0
 11 33  1  0  0  0  0
 11 34  1  0  0  0  0
 12 35  1  0  0  0  0
 12 36  1  0  0  0  0
 13 37  1  0  0  0  0
 13 38  1  0  0  0  0
 14 15  1  0  0  0  0
 14 16  2  0  0  0  0
 15 18  2  0  0  0  0
 16 17  1  0  0  0  0
 16 41  1  0  0  0  0
 17 19  1  0  0  0  0
 18 19  1  0  0  0  0
 18 42  1  0  0  0  0
 19 20  2  0  0  0  0
 20 21  1  0  0  0  0
 21 25  2  0  0  0  0
 21 43  1  0  0  0  0
 22 23  2  0  0  0  0
 22 26  1  0  0  0  0
 22 29  1  0  0  0  0
 23 30  1  0  0  0  0
 24 26  2  0  0  0  0
 24 31  1  0  0  0  0
 25 44  1  0  0  0  0
 27 47  1  0  0  0  0
 27 48  1  0  0  0  0
 27 49  1  0  0  0  0
 28 29  2  0  0  0  0
 28 32  1  0  0  0  0
 29 45  1  0  0  0  0
 30 31  2  0  0  0  0
 30 50  1  0  0  0  0
 31 51  1  0  0  0  0
 32 52  1  0  0  0  0
 32 53  1  0  0  0  0
 32 54  1  0  0  0  0
M  END
> <PUBCHEM_COMPOUND_CID>
57380530

> <PUBCHEM_COMPOUND_CANONICALIZED>
1

> <PUBCHEM_CACTVS_COMPLEXITY>
606

> <PUBCHEM_CACTVS_HBOND_ACCEPTOR>
6

> <PUBCHEM_CACTVS_HBOND_DONOR>
4

> <PUBCHEM_CACTVS_ROTATABLE_BOND>
6

> <PUBCHEM_CACTVS_SUBSKEYS>
AAADceB7MQAGAAAAAAAAAAAAGAAAAWAAAAA8YIAAAAAAAFix/gAAHwAQAAAADIzhng4+xvLJlACgAzRnRACCiCAxIiAI2SA+7JgPJuLEsZuHOCrm0BnK6Afw8L8OIEABAgACQABAgAIEAASAAAAAAAAAAA==

> <PUBCHEM_IUPAC_OPENEYE_NAME>
1-[[4-[(4-fluoro-2-methyl-1H-indol-5-yl)oxy]-6-methoxy-7-quinolyl]oxymethyl]cyclopropanamine;dihydrochloride

> <PUBCHEM_IUPAC_CAS_NAME>
1-[[4-[(4-fluoro-2-methyl-1H-indol-5-yl)oxy]-6-methoxy-7-quinolinyl]oxymethyl]-1-cyclopropanamine;dihydrochloride

> <PUBCHEM_IUPAC_NAME_MARKUP>
1-[[4-[(4-fluoro-2-methyl-1<I>H</I>-indol-5-yl)oxy]-6-methoxyquinolin-7-yl]oxymethyl]cyclopropan-1-amine;dihydrochloride

> <PUBCHEM_IUPAC_NAME>
1-[[4-[(4-fluoro-2-methyl-1H-indol-5-yl)oxy]-6-methoxyquinolin-7-yl]oxymethyl]cyclopropan-1-amine;dihydrochloride

> <PUBCHEM_IUPAC_SYSTEMATIC_NAME>
1-[[4-[(4-fluoranyl-2-methyl-1H-indol-5-yl)oxy]-6-methoxy-quinolin-7-yl]oxymethyl]cyclopropan-1-amine;dihydrochloride

> <PUBCHEM_IUPAC_TRADITIONAL_NAME>
[1-[[4-[(4-fluoro-2-methyl-1H-indol-5-yl)oxy]-6-methoxy-7-quinolyl]oxymethyl]cyclopropyl]amine;dihydrochloride

> <PUBCHEM_IUPAC_INCHI>
InChI=1S/C23H22FN3O3.2ClH/c1-13-9-15-16(27-13)3-4-19(22(15)24)30-18-5-8-26-17-11-21(20(28-2)10-14(17)18)29-12-23(25)6-7-23;;/h3-5,8-11,27H,6-7,12,25H2,1-2H3;2*1H

> <PUBCHEM_IUPAC_INCHIKEY>
UUAKQNIPIXQZFN-UHFFFAOYSA-N

> <PUBCHEM_EXACT_MASS>
479.1178752

> <PUBCHEM_MOLECULAR_FORMULA>
C23H24Cl2FN3O3

> <PUBCHEM_MOLECULAR_WEIGHT>
480.4

> <PUBCHEM_OPENEYE_CAN_SMILES>
CC1=CC2=C(N1)C=CC(=C2F)OC3=C4C=C(C(=CC4=NC=C3)OCC5(CC5)N)OC.Cl.Cl

> <PUBCHEM_OPENEYE_ISO_SMILES>
CC1=CC2=C(N1)C=CC(=C2F)OC3=C4C=C(C(=CC4=NC=C3)OCC5(CC5)N)OC.Cl.Cl

> <PUBCHEM_CACTVS_TPSA>
82.4

> <PUBCHEM_MONOISOTOPIC_WEIGHT>
479.1178752

> <PUBCHEM_TOTAL_CHARGE>
0

> <PUBCHEM_HEAVY_ATOM_COUNT>
32

> <PUBCHEM_ATOM_DEF_STEREO_COUNT>
0

> <PUBCHEM_ATOM_UDEF_STEREO_COUNT>
0

> <PUBCHEM_BOND_DEF_STEREO_COUNT>
0

> <PUBCHEM_BOND_UDEF_STEREO_COUNT>
0

> <PUBCHEM_ISOTOPIC_ATOM_COUNT>
0

> <PUBCHEM_COMPONENT_COUNT>
3

> <PUBCHEM_CACTVS_TAUTO_COUNT>
-1

> <PUBCHEM_COORDINATE_TYPE>
1
5
255

> <PUBCHEM_BONDANNOTATIONS>
14  15  8
14  16  8
15  18  8
16  17  8
17  19  8
18  19  8
19  20  8
20  21  8
21  25  8
22  23  8
22  26  8
22  29  8
23  30  8
24  26  8
24  31  8
28  29  8
30  31  8
8  17  8
8  25  8
9  23  8
9  28  8

$$$$
135379897
  -OEChem-11282412102D

 72 74  0     0  0  0  0  0  0999 V2000
    4.8671    7.1743    0.0000 O   0  0  0  0  0  0  0  0  0  0  0  0
    5.7331    7.6743    0.0000 O   0  0  0  0  0  0  0  0  0  0  0  0
    4.0080   12.8042    0.0000 O   0  0  0  0  0  0  0  0  0  0  0  0
    8.3381   12.3042    0.0000 O   0  0  0  0  0  0  0  0  0  0  0  0
    4.8740   11.3042    0.0000 O   0  0  0  0  0  0  0  0  0  0  0  0
    7.4721   13.8042    0.0000 O   0  0  0  0  0  0  0  0  0  0  0  0
    2.2690    4.6743    0.0000 N   0  0  0  0  0  0  0  0  0  0  0  0
    4.0010    5.6743    0.0000 N   0  0  0  0  0  0  0  0  0  0  0  0
    5.7331    5.6743    0.0000 N   0  0  0  0  0  0  0  0  0  0  0  0
    9.2251    7.7090    0.0000 N   0  0  0  0  0  0  0  0  0  0  0  0
    9.2135    4.6397    0.0000 N   0  0  0  0  0  0  0  0  0  0  0  0
   10.1312    6.1535    0.0000 N   0  0  0  0  0  0  0  0  0  0  0  0
    2.2690    5.6743    0.0000 C   0  0  0  0  0  0  0  0  0  0  0  0
    3.1350    4.1743    0.0000 C   0  0  0  0  0  0  0  0  0  0  0  0
    3.1350    6.1743    0.0000 C   0  0  0  0  0  0  0  0  0  0  0  0
    4.0010    4.6743    0.0000 C   0  0  0  0  0  0  0  0  0  0  0  0
    1.4030    4.1743    0.0000 C   0  0  0  0  0  0  0  0  0  0  0  0
    4.8671    6.1743    0.0000 C   0  0  0  0  0  0  0  0  0  0  0  0
    0.5369    4.6743    0.0000 C   0  0  0  0  0  0  0  0  0  0  0  0
    6.5991    6.1743    0.0000 C   0  0  0  0  0  0  0  0  0  0  0  0
    7.4651    5.6743    0.0000 C   0  0  0  0  0  0  0  0  0  0  0  0
    6.5991    7.1743    0.0000 C   0  0  0  0  0  0  0  0  0  0  0  0
    8.3312    6.1743    0.0000 C   0  0  0  0  0  0  0  0  0  0  0  0
    8.3312    7.1743    0.0000 C   0  0  0  0  0  0  0  0  0  0  0  0
    7.4651    7.6743    0.0000 C   0  0  0  0  0  0  0  0  0  0  0  0
    9.2251    5.6396    0.0000 C   0  0  0  0  0  0  0  0  0  0  0  0
   10.1312    7.1951    0.0000 C   0  0  0  0  0  0  0  0  0  0  0  0
   10.0737    4.1297    0.0000 C   0  0  0  0  0  0  0  0  0  0  0  0
    5.7331    8.6743    0.0000 C   0  0  0  0  0  0  0  0  0  0  0  0
   10.0622    3.1298    0.0000 C   0  0  0  0  0  0  0  0  0  0  0  0
   10.9455    4.6197    0.0000 C   0  0  0  0  0  0  0  0  0  0  0  0
   10.9224    2.6198    0.0000 C   0  0  0  0  0  0  0  0  0  0  0  0
   11.8057    4.1097    0.0000 C   0  0  0  0  0  0  0  0  0  0  0  0
   11.7941    3.1098    0.0000 C   0  0  0  0  0  0  0  0  0  0  0  0
   10.9108    1.6199    0.0000 C   0  0  0  0  0  0  0  0  0  0  0  0
   10.8992    0.6200    0.0000 C   0  0  0  0  0  0  0  0  0  0  0  0
    5.7401   12.8042    0.0000 C   0  0  0  0  0  0  0  0  0  0  0  0
    6.6061   12.3042    0.0000 C   0  0  0  0  0  0  0  0  0  0  0  0
    4.8740   12.3042    0.0000 C   0  0  0  0  0  0  0  0  0  0  0  0
    7.4721   12.8042    0.0000 C   0  0  0  0  0  0  0  0  0  0  0  0
    2.0569    6.2569    0.0000 H   0  0  0  0  0  0  0  0  0  0  0  0
    1.6584    5.5666    0.0000 H   0  0  0  0  0  0  0  0  0  0  0  0
    2.7365    3.6994    0.0000 H   0  0  0  0  0  0  0  0  0  0  0  0
    3.5335    3.6994    0.0000 H   0  0  0  0  0  0  0  0  0  0  0  0
    3.5335    6.6493    0.0000 H   0  0  0  0  0  0  0  0  0  0  0  0
    2.7365    6.6493    0.0000 H   0  0  0  0  0  0  0  0  0  0  0  0
    4.2131    4.0917    0.0000 H   0  0  0  0  0  0  0  0  0  0  0  0
    4.6116    4.7820    0.0000 H   0  0  0  0  0  0  0  0  0  0  0  0
    1.0044    3.6994    0.0000 H   0  0  0  0  0  0  0  0  0  0  0  0
    1.8015    3.6994    0.0000 H   0  0  0  0  0  0  0  0  0  0  0  0
    0.8469    5.2112    0.0000 H   0  0  0  0  0  0  0  0  0  0  0  0
    0.0000    4.9843    0.0000 H   0  0  0  0  0  0  0  0  0  0  0  0
    0.2269    4.1374    0.0000 H   0  0  0  0  0  0  0  0  0  0  0  0
    5.7331    5.0543    0.0000 H   0  0  0  0  0  0  0  0  0  0  0  0
    7.4651    5.0543    0.0000 H   0  0  0  0  0  0  0  0  0  0  0  0
    7.4651    8.2943    0.0000 H   0  0  0  0  0  0  0  0  0  0  0  0
    8.6731    4.3360    0.0000 H   0  0  0  0  0  0  0  0  0  0  0  0
   10.6669    7.5072    0.0000 H   0  0  0  0  0  0  0  0  0  0  0  0
    6.3531    8.6743    0.0000 H   0  0  0  0  0  0  0  0  0  0  0  0
    5.7331    9.2943    0.0000 H   0  0  0  0  0  0  0  0  0  0  0  0
    5.1131    8.6743    0.0000 H   0  0  0  0  0  0  0  0  0  0  0  0
    9.5217    2.8260    0.0000 H   0  0  0  0  0  0  0  0  0  0  0  0
   10.9526    5.2396    0.0000 H   0  0  0  0  0  0  0  0  0  0  0  0
   12.3461    4.4135    0.0000 H   0  0  0  0  0  0  0  0  0  0  0  0
   12.3274    2.7936    0.0000 H   0  0  0  0  0  0  0  0  0  0  0  0
   10.8921    0.0000    0.0000 H   0  0  0  0  0  0  0  0  0  0  0  0
    6.1386   13.2792    0.0000 H   0  0  0  0  0  0  0  0  0  0  0  0
    5.3415   13.2792    0.0000 H   0  0  0  0  0  0  0  0  0  0  0  0
    6.2076   11.8293    0.0000 H   0  0  0  0  0  0  0  0  0  0  0  0
    7.0046   11.8293    0.0000 H   0  0  0  0  0  0  0  0  0  0  0  0
    3.4711   12.4942    0.0000 H   0  0  0  0  0  0  0  0  0  0  0  0
    8.8751   12.6142    0.0000 H   0  0  0  0  0  0  0  0  0  0  0  0
  1 18  2  0  0  0  0
  2 22  1  0  0  0  0
  2 29  1  0  0  0  0
  3 39  1  0  0  0  0
  3 71  1  0  0  0  0
  4 40  1  0  0  0  0
  4 72  1  0  0  0  0
  5 39  2  0  0  0  0
  6 40  2  0  0  0  0
  7 13  1  0  0  0  0
  7 14  1  0  0  0  0
  7 17  1  0  0  0  0
  8 15  1  0  0  0  0
  8 16  1  0  0  0  0
  8 18  1  0  0  0  0
  9 18  1  0  0  0  0
  9 20  1  0  0  0  0
  9 54  1  0  0  0  0
 10 24  1  0  0  0  0
 10 27  2  0  0  0  0
 11 26  1  0  0  0  0
 11 28  1  0  0  0  0
 11 57  1  0  0  0  0
 12 26  2  0  0  0  0
 12 27  1  0  0  0  0
 13 15  1  0  0  0  0
 13 41  1  0  0  0  0
 13 42  1  0  0  0  0
 14 16  1  0  0  0  0
 14 43  1  0  0  0  0
 14 44  1  0  0  0  0
 15 45  1  0  0  0  0
 15 46  1  0  0  0  0
 16 47  1  0  0  0  0
 16 48  1  0  0  0  0
 17 19  1  0  0  0  0
 17 49  1  0  0  0  0
 17 50  1  0  0  0  0
 19 51  1  0  0  0  0
 19 52  1  0  0  0  0
 19 53  1  0  0  0  0
 20 21  1  0  0  0  0
 20 22  2  0  0  0  0
 21 23  2  0  0  0  0
 21 55  1  0  0  0  0
 22 25  1  0  0  0  0
 23 24  1  0  0  0  0
 23 26  1  0  0  0  0
 24 25  2  0  0  0  0
 25 56  1  0  0  0  0
 27 58  1  0  0  0  0
 28 30  1  0  0  0  0
 28 31  2  0  0  0  0
 29 59  1  0  0  0  0
 29 60  1  0  0  0  0
 29 61  1  0  0  0  0
 30 32  2  0  0  0  0
 30 62  1  0  0  0  0
 31 33  1  0  0  0  0
 31 63  1  0  0  0  0
 32 34  1  0  0  0  0
 32 35  1  0  0  0  0
 33 34  2  0  0  0  0
 33 64  1  0  0  0  0
 34 65  1  0  0  0  0
 35 36  3  0  0  0  0
 36 66  1  0  0  0  0
 37 38  1  0  0  0  0
 37 39  1  0  0  0  0
 37 67  1  0  0  0  0
 37 68  1  0  0  0  0
 38 40  1  0  0  0  0
 38 69  1  0  0  0  0
 38 70  1  0  0  0  0
M  END
> <PUBCHEM_COMPOUND_CID>
135379897

> <PUBCHEM_COMPOUND_CANONICALIZED>
1

> <PUBCHEM_CACTVS_COMPLEXITY>
765

> <PUBCHEM_CACTVS_HBOND_ACCEPTOR>
10

> <PUBCHEM_CACTVS_HBOND_DONOR>
4

> <PUBCHEM_CACTVS_ROTATABLE_BOND>
9

> <PUBCHEM_CACTVS_SUBSKEYS>
AAADcfB7uAAAAAAAAAAAAAAAAAAAAAAAAAA8eIEAAAAAAACx9AAAHgAQCAAADAzBngY3/vfIFgDoGybzfAiCiCkxIqAJ2CE/bJiObvLE+duVdChu1hvY6CfT0AMOIACAQgACEABAAQCEAAQgAAAAAAAAAA==

> <PUBCHEM_IUPAC_OPENEYE_NAME>
4-ethyl-N-[4-(3-ethynylanilino)-7-methoxy-quinazolin-6-yl]piperazine-1-carboxamide;succinic acid

> <PUBCHEM_IUPAC_CAS_NAME>
butanedioic acid;4-ethyl-N-[4-(3-ethynylanilino)-7-methoxy-6-quinazolinyl]-1-piperazinecarboxamide

> <PUBCHEM_IUPAC_NAME_MARKUP>
butanedioic acid;4-ethyl-<I>N</I>-[4-(3-ethynylanilino)-7-methoxyquinazolin-6-yl]piperazine-1-carboxamide

> <PUBCHEM_IUPAC_NAME>
butanedioic acid;4-ethyl-N-[4-(3-ethynylanilino)-7-methoxyquinazolin-6-yl]piperazine-1-carboxamide

> <PUBCHEM_IUPAC_SYSTEMATIC_NAME>
butanedioic acid;4-ethyl-N-[4-[(3-ethynylphenyl)amino]-7-methoxy-quinazolin-6-yl]piperazine-1-carboxamide

> <PUBCHEM_IUPAC_TRADITIONAL_NAME>
4-ethyl-N-[4-(3-ethynylanilino)-7-methoxy-quinazolin-6-yl]piperazine-1-carboxamide;succinic acid

> <PUBCHEM_IUPAC_INCHI>
InChI=1S/C24H26N6O2.C4H6O4/c1-4-17-7-6-8-18(13-17)27-23-19-14-21(22(32-3)15-20(19)25-16-26-23)28-24(31)30-11-9-29(5-2)10-12-30;5-3(6)1-2-4(7)8/h1,6-8,13-16H,5,9-12H2,2-3H3,(H,28,31)(H,25,26,27);1-2H2,(H,5,6)(H,7,8)

> <PUBCHEM_IUPAC_INCHIKEY>
HISXHQFAOANCJX-UHFFFAOYSA-N

> <PUBCHEM_EXACT_MASS>
548.23833276

> <PUBCHEM_MOLECULAR_FORMULA>
C28H32N6O6

> <PUBCHEM_MOLECULAR_WEIGHT>
548.6

> <PUBCHEM_OPENEYE_CAN_SMILES>
CCN1CCN(CC1)C(=O)NC2=C(C=C3C(=C2)C(=NC=N3)NC4=CC=CC(=C4)C#C)OC.C(CC(=O)O)C(=O)O

> <PUBCHEM_OPENEYE_ISO_SMILES>
CCN1CCN(CC1)C(=O)NC2=C(C=C3C(=C2)C(=NC=N3)NC4=CC=CC(=C4)C#C)OC.C(CC(=O)O)C(=O)O

> <PUBCHEM_CACTVS_TPSA>
157

> <PUBCHEM_MONOISOTOPIC_WEIGHT>
548.23833276

> <PUBCHEM_TOTAL_CHARGE>
0

> <PUBCHEM_HEAVY_ATOM_COUNT>
40

> <PUBCHEM_ATOM_DEF_STEREO_COUNT>
0

> <PUBCHEM_ATOM_UDEF_STEREO_COUNT>
0

> <PUBCHEM_BOND_DEF_STEREO_COUNT>
0

> <PUBCHEM_BOND_UDEF_STEREO_COUNT>
0

> <PUBCHEM_ISOTOPIC_ATOM_COUNT>
0

> <PUBCHEM_COMPONENT_COUNT>
2

> <PUBCHEM_CACTVS_TAUTO_COUNT>
-1

> <PUBCHEM_COORDINATE_TYPE>
1
5
255

> <PUBCHEM_BONDANNOTATIONS>
10  24  8
10  27  8
12  26  8
12  27  8
20  21  8
20  22  8
21  23  8
22  25  8
23  24  8
23  26  8
24  25  8
28  30  8
28  31  8
30  32  8
31  33  8
32  34  8
33  34  8

$$$$
25127112
  -OEChem-11282412102D

 49 51  0     1  0  0  0  0  0999 V2000
    8.0622    4.1323    0.0000 P   0  0  0  0  0  0  0  0  0  0  0  0
    8.9282    4.6323    0.0000 O   0  0  0  0  0  0  0  0  0  0  0  0
    7.1962    3.6323    0.0000 O   0  0  0  0  0  0  0  0  0  0  0  0
    7.5622    4.9983    0.0000 O   0  0  0  0  0  0  0  0  0  0  0  0
    8.5622    3.2663    0.0000 O   0  0  0  0  0  0  0  0  0  0  0  0
    1.9030    4.9329    0.0000 N   0  0  0  0  0  0  0  0  0  0  0  0
    0.9030    4.9329    0.0000 N   0  0  0  0  0  0  0  0  0  0  0  0
    4.6608    7.2554    0.0000 N   0  0  0  0  0  0  0  0  0  0  0  0
    0.5369    1.8940    0.0000 N   0  0  0  0  0  0  0  0  0  0  0  0
    3.2152    0.5893    0.0000 N   0  0  0  0  0  0  0  0  0  0  0  0
    1.4030    0.3941    0.0000 N   0  0  0  0  0  0  0  0  0  0  0  0
    2.0840    6.6555    0.0000 C   0  0  0  0  0  0  0  0  0  0  0  0
    2.5840    7.5215    0.0000 C   0  0  0  0  0  0  0  0  0  0  0  0
    1.1059    6.8634    0.0000 C   0  0  0  0  0  0  0  0  0  0  0  0
    2.4907    5.7419    0.0000 C   0  0  1  0  0  0  0  0  0  0  0  0
    1.9149    8.2646    0.0000 C   0  0  0  0  0  0  0  0  0  0  0  0
    1.0013    7.8579    0.0000 C   0  0  0  0  0  0  0  0  0  0  0  0
    3.4853    5.6374    0.0000 C   0  0  0  0  0  0  0  0  0  0  0  0
    2.2120    3.9818    0.0000 C   0  0  0  0  0  0  0  0  0  0  0  0
    1.4030    3.3940    0.0000 C   0  0  0  0  0  0  0  0  0  0  0  0
    4.0730    6.4464    0.0000 C   0  0  0  0  0  0  0  0  0  0  0  0
    0.5939    3.9818    0.0000 C   0  0  0  0  0  0  0  0  0  0  0  0
    1.4030    2.3940    0.0000 C   0  0  0  0  0  0  0  0  0  0  0  0
    2.2690    1.8940    0.0000 C   0  0  0  0  0  0  0  0  0  0  0  0
    2.2690    0.8941    0.0000 C   0  0  0  0  0  0  0  0  0  0  0  0
    3.2152    2.1988    0.0000 C   0  0  0  0  0  0  0  0  0  0  0  0
    3.7988    1.3940    0.0000 C   0  0  0  0  0  0  0  0  0  0  0  0
    0.5369    0.8941    0.0000 C   0  0  0  0  0  0  0  0  0  0  0  0
    1.6938    6.1736    0.0000 H   0  0  0  0  0  0  0  0  0  0  0  0
    3.0856    7.1571    0.0000 H   0  0  0  0  0  0  0  0  0  0  0  0
    2.9989    7.9822    0.0000 H   0  0  0  0  0  0  0  0  0  0  0  0
    0.4859    6.8634    0.0000 H   0  0  0  0  0  0  0  0  0  0  0  0
    1.0410    6.2468    0.0000 H   0  0  0  0  0  0  0  0  0  0  0  0
    2.7429    5.1755    0.0000 H   0  0  0  0  0  0  0  0  0  0  0  0
    2.4165    8.6291    0.0000 H   0  0  0  0  0  0  0  0  0  0  0  0
    1.6049    8.8016    0.0000 H   0  0  0  0  0  0  0  0  0  0  0  0
    0.8097    8.4476    0.0000 H   0  0  0  0  0  0  0  0  0  0  0  0
    0.3949    7.7290    0.0000 H   0  0  0  0  0  0  0  0  0  0  0  0
    3.3144    5.0414    0.0000 H   0  0  0  0  0  0  0  0  0  0  0  0
    4.0425    5.3656    0.0000 H   0  0  0  0  0  0  0  0  0  0  0  0
    2.8016    3.7902    0.0000 H   0  0  0  0  0  0  0  0  0  0  0  0
    0.0043    3.7902    0.0000 H   0  0  0  0  0  0  0  0  0  0  0  0
    3.4078    2.7881    0.0000 H   0  0  0  0  0  0  0  0  0  0  0  0
    3.4078    0.0000    0.0000 H   0  0  0  0  0  0  0  0  0  0  0  0
    4.4188    1.3940    0.0000 H   0  0  0  0  0  0  0  0  0  0  0  0
    0.0000    0.5841    0.0000 H   0  0  0  0  0  0  0  0  0  0  0  0
    9.4652    4.3223    0.0000 H   0  0  0  0  0  0  0  0  0  0  0  0
    6.6593    3.9423    0.0000 H   0  0  0  0  0  0  0  0  0  0  0  0
    7.8722    5.5353    0.0000 H   0  0  0  0  0  0  0  0  0  0  0  0
  1  2  1  0  0  0  0
  1  3  1  0  0  0  0
  1  4  1  0  0  0  0
  1  5  2  0  0  0  0
  2 47  1  0  0  0  0
  3 48  1  0  0  0  0
  4 49  1  0  0  0  0
  6  7  1  0  0  0  0
  6 15  1  0  0  0  0
  6 19  1  0  0  0  0
  7 22  2  0  0  0  0
  8 21  3  0  0  0  0
  9 23  1  0  0  0  0
  9 28  2  0  0  0  0
 10 25  1  0  0  0  0
 10 27  1  0  0  0  0
 10 44  1  0  0  0  0
 11 25  2  0  0  0  0
 11 28  1  0  0  0  0
 12 13  1  0  0  0  0
 12 14  1  0  0  0  0
 12 15  1  0  0  0  0
 12 29  1  0  0  0  0
 13 16  1  0  0  0  0
 13 30  1  0  0  0  0
 13 31  1  0  0  0  0
 14 17  1  0  0  0  0
 14 32  1  0  0  0  0
 14 33  1  0  0  0  0
 15 18  1  1  0  0  0
 15 34  1  0  0  0  0
 16 17  1  0  0  0  0
 16 35  1  0  0  0  0
 16 36  1  0  0  0  0
 17 37  1  0  0  0  0
 17 38  1  0  0  0  0
 18 21  1  0  0  0  0
 18 39  1  0  0  0  0
 18 40  1  0  0  0  0
 19 20  2  0  0  0  0
 19 41  1  0  0  0  0
 20 22  1  0  0  0  0
 20 23  1  0  0  0  0
 22 42  1  0  0  0  0
 23 24  2  0  0  0  0
 24 25  1  0  0  0  0
 24 26  1  0  0  0  0
 26 27  2  0  0  0  0
 26 43  1  0  0  0  0
 27 45  1  0  0  0  0
 28 46  1  0  0  0  0
M  END
> <PUBCHEM_COMPOUND_CID>
25127112

> <PUBCHEM_COMPOUND_CANONICALIZED>
1

> <PUBCHEM_CACTVS_COMPLEXITY>
503

> <PUBCHEM_CACTVS_HBOND_ACCEPTOR>
8

> <PUBCHEM_CACTVS_HBOND_DONOR>
4

> <PUBCHEM_CACTVS_ROTATABLE_BOND>
4

> <PUBCHEM_CACTVS_SUBSKEYS>
AAADceB7uAIAAAAAAAAAAAAAAAAAAeLEAAAsAAAAAAAAAFgB/gAAHAAYCCAADSjBHwQ9sN7JkBCyRzZnZICShCmxgqAZ2aA4ZJiIqOLA2dGEpAhomALIyC8QgIAOAAAAAAAAAAAAAAAAAAAAAAAAAAAAAA==

> <PUBCHEM_IUPAC_OPENEYE_NAME>
(3R)-3-cyclopentyl-3-[4-(7H-pyrrolo[2,3-d]pyrimidin-4-yl)pyrazol-1-yl]propanenitrile;phosphoric acid

> <PUBCHEM_IUPAC_CAS_NAME>
(3R)-3-cyclopentyl-3-[4-(7H-pyrrolo[2,3-d]pyrimidin-4-yl)-1-pyrazolyl]propanenitrile;phosphoric acid

> <PUBCHEM_IUPAC_NAME_MARKUP>
(3<I>R</I>)-3-cyclopentyl-3-[4-(7<I>H</I>-pyrrolo[2,3-d]pyrimidin-4-yl)pyrazol-1-yl]propanenitrile;phosphoric acid

> <PUBCHEM_IUPAC_NAME>
(3R)-3-cyclopentyl-3-[4-(7H-pyrrolo[2,3-d]pyrimidin-4-yl)pyrazol-1-yl]propanenitrile;phosphoric acid

> <PUBCHEM_IUPAC_SYSTEMATIC_NAME>
(3R)-3-cyclopentyl-3-[4-(7H-pyrrolo[2,3-d]pyrimidin-4-yl)pyrazol-1-yl]propanenitrile;phosphoric acid

> <PUBCHEM_IUPAC_TRADITIONAL_NAME>
(3R)-3-cyclopentyl-3-[4-(7H-pyrrolo[2,3-d]pyrimidin-4-yl)pyrazol-1-yl]propionitrile;phosphoric acid

> <PUBCHEM_IUPAC_INCHI>
InChI=1S/C17H18N6.H3O4P/c18-7-5-15(12-3-1-2-4-12)23-10-13(9-22-23)16-14-6-8-19-17(14)21-11-20-16;1-5(2,3)4/h6,8-12,15H,1-5H2,(H,19,20,21);(H3,1,2,3,4)/t15-;/m1./s1

> <PUBCHEM_IUPAC_INCHIKEY>
JFMWPOCYMYGEDM-XFULWGLBSA-N

> <PUBCHEM_EXACT_MASS>
404.13619017

> <PUBCHEM_MOLECULAR_FORMULA>
C17H21N6O4P

> <PUBCHEM_MOLECULAR_WEIGHT>
404.4

> <PUBCHEM_OPENEYE_CAN_SMILES>
C1CCC(C1)C(CC#N)N2C=C(C=N2)C3=C4C=CNC4=NC=N3.OP(=O)(O)O

> <PUBCHEM_OPENEYE_ISO_SMILES>
C1CCC(C1)[C@@H](CC#N)N2C=C(C=N2)C3=C4C=CNC4=NC=N3.OP(=O)(O)O

> <PUBCHEM_CACTVS_TPSA>
161

> <PUBCHEM_MONOISOTOPIC_WEIGHT>
404.13619017

> <PUBCHEM_TOTAL_CHARGE>
0

> <PUBCHEM_HEAVY_ATOM_COUNT>
28

> <PUBCHEM_ATOM_DEF_STEREO_COUNT>
1

> <PUBCHEM_ATOM_UDEF_STEREO_COUNT>
0

> <PUBCHEM_BOND_DEF_STEREO_COUNT>
0

> <PUBCHEM_BOND_UDEF_STEREO_COUNT>
0

> <PUBCHEM_ISOTOPIC_ATOM_COUNT>
0

> <PUBCHEM_COMPONENT_COUNT>
2

> <PUBCHEM_CACTVS_TAUTO_COUNT>
-1

> <PUBCHEM_COORDINATE_TYPE>
1
5
255

> <PUBCHEM_BONDANNOTATIONS>
10  25  8
10  27  8
11  25  8
11  28  8
15  18  5
19  20  8
20  22  8
23  24  8
24  25  8
24  26  8
26  27  8
6  19  8
6  7  8
7  22  8
9  23  8
9  28  8

$$$$
72704611
  -OEChem-11282412102D

 41 44  0     1  0  0  0  0  0999 V2000
    4.3958    0.5174    0.0000 N   0  0  0  0  0  0  0  0  0  0  0  0
    5.3958    0.5174    0.0000 N   0  0  0  0  0  0  0  0  0  0  0  0
    4.0298   -2.5215    0.0000 N   0  0  0  0  0  0  0  0  0  0  0  0
    2.0000   -0.6052    0.0000 N   0  0  0  0  0  0  0  0  0  0  0  0
    6.7080   -3.8262    0.0000 N   0  0  0  0  0  0  0  0  0  0  0  0
    4.8958   -4.0215    0.0000 N   0  0  0  0  0  0  0  0  0  0  0  0
    4.2147    2.2400    0.0000 C   0  0  0  0  0  0  0  0  0  0  0  0
    5.1929    2.4479    0.0000 C   0  0  0  0  0  0  0  0  0  0  0  0
    3.7147    3.1060    0.0000 C   0  0  0  0  0  0  0  0  0  0  0  0
    3.8080    1.3264    0.0000 C   0  0  1  0  0  0  0  0  0  0  0  0
    5.2974    3.4424    0.0000 C   0  0  0  0  0  0  0  0  0  0  0  0
    4.3839    3.8491    0.0000 C   0  0  0  0  0  0  0  0  0  0  0  0
    2.8135    1.2219    0.0000 C   0  0  0  0  0  0  0  0  0  0  0  0
    4.0868   -0.4337    0.0000 C   0  0  0  0  0  0  0  0  0  0  0  0
    4.8958   -1.0215    0.0000 C   0  0  0  0  0  0  0  0  0  0  0  0
    2.4067    0.3083    0.0000 C   0  0  0  0  0  0  0  0  0  0  0  0
    5.7048   -0.4337    0.0000 C   0  0  0  0  0  0  0  0  0  0  0  0
    4.8958   -2.0215    0.0000 C   0  0  0  0  0  0  0  0  0  0  0  0
    5.7618   -2.5215    0.0000 C   0  0  0  0  0  0  0  0  0  0  0  0
    5.7618   -3.5215    0.0000 C   0  0  0  0  0  0  0  0  0  0  0  0
    6.7080   -2.2167    0.0000 C   0  0  0  0  0  0  0  0  0  0  0  0
    7.2916   -3.0215    0.0000 C   0  0  0  0  0  0  0  0  0  0  0  0
    4.0298   -3.5215    0.0000 C   0  0  0  0  0  0  0  0  0  0  0  0
    3.5956    2.2075    0.0000 H   0  0  0  0  0  0  0  0  0  0  0  0
    5.8095    2.3830    0.0000 H   1  0  0  0  0  0  0  0  0  0  0  0
    5.3218    1.8414    0.0000 H   1  0  0  0  0  0  0  0  0  0  0  0
    3.2540    3.5208    0.0000 H   1  0  0  0  0  0  0  0  0  0  0  0
    3.1778    2.7960    0.0000 H   1  0  0  0  0  0  0  0  0  0  0  0
    3.5558    0.7600    0.0000 H   0  0  0  0  0  0  0  0  0  0  0  0
    5.5496    4.0088    0.0000 H   1  0  0  0  0  0  0  0  0  0  0  0
    5.9140    3.3776    0.0000 H   1  0  0  0  0  0  0  0  0  0  0  0
    4.6360    4.4155    0.0000 H   1  0  0  0  0  0  0  0  0  0  0  0
    3.9231    4.2640    0.0000 H   1  0  0  0  0  0  0  0  0  0  0  0
    2.8567    1.8404    0.0000 H   0  0  0  0  0  0  0  0  0  0  0  0
    2.2119    1.3719    0.0000 H   0  0  0  0  0  0  0  0  0  0  0  0
    3.4971   -0.6253    0.0000 H   0  0  0  0  0  0  0  0  0  0  0  0
    6.2944   -0.6253    0.0000 H   0  0  0  0  0  0  0  0  0  0  0  0
    6.9006   -1.6274    0.0000 H   0  0  0  0  0  0  0  0  0  0  0  0
    6.9006   -4.4155    0.0000 H   0  0  0  0  0  0  0  0  0  0  0  0
    7.9116   -3.0215    0.0000 H   0  0  0  0  0  0  0  0  0  0  0  0
    3.4928   -3.8315    0.0000 H   0  0  0  0  0  0  0  0  0  0  0  0
  1  2  1  0  0  0  0
  1 10  1  0  0  0  0
  1 14  1  0  0  0  0
  2 17  2  0  0  0  0
  3 18  1  0  0  0  0
  3 23  2  0  0  0  0
  4 16  3  0  0  0  0
  5 20  1  0  0  0  0
  5 22  1  0  0  0  0
  5 39  1  0  0  0  0
  6 20  2  0  0  0  0
  6 23  1  0  0  0  0
  7  8  1  0  0  0  0
  7  9  1  0  0  0  0
  7 10  1  0  0  0  0
  7 24  1  0  0  0  0
  8 11  1  0  0  0  0
  8 25  1  0  0  0  0
  8 26  1  0  0  0  0
  9 12  1  0  0  0  0
  9 27  1  0  0  0  0
  9 28  1  0  0  0  0
 10 13  1  6  0  0  0
 10 29  1  0  0  0  0
 11 12  1  0  0  0  0
 11 30  1  0  0  0  0
 11 31  1  0  0  0  0
 12 32  1  0  0  0  0
 12 33  1  0  0  0  0
 13 16  1  0  0  0  0
 13 34  1  0  0  0  0
 13 35  1  0  0  0  0
 14 15  2  0  0  0  0
 14 36  1  0  0  0  0
 15 17  1  0  0  0  0
 15 18  1  0  0  0  0
 17 37  1  0  0  0  0
 18 19  2  0  0  0  0
 19 20  1  0  0  0  0
 19 21  1  0  0  0  0
 21 22  2  0  0  0  0
 21 38  1  0  0  0  0
 22 40  1  0  0  0  0
 23 41  1  0  0  0  0
M  ISO  8  25   2  26   2  27   2  28   2  30   2  31   2  32   2  33   2
M  END
> <PUBCHEM_COMPOUND_CID>
72704611

> <PUBCHEM_COMPOUND_CANONICALIZED>
1

> <PUBCHEM_CACTVS_COMPLEXITY>
453

> <PUBCHEM_CACTVS_HBOND_ACCEPTOR>
4

> <PUBCHEM_CACTVS_HBOND_DONOR>
1

> <PUBCHEM_CACTVS_ROTATABLE_BOND>
4

> <PUBCHEM_CACTVS_SUBSKEYS>
AAADceB7gAAAAAAAAAAAAAAAAAAAAeLEAAAsAAAAAAAAAFgB/gAAHAAYAAAADSjBHwQ9sN7JkACyBzZnZACShCmxgqAZ2aA4ZJiIqOLA2dGEpAhomALIyC8QgIAOAAAAAAAAAAAAAAAAAAAAAAAAAAAAAA==

> <PUBCHEM_IUPAC_OPENEYE_NAME>
(3R)-3-(2,2,3,3,4,4,5,5-octadeuteriocyclopentyl)-3-[4-(7H-pyrrolo[2,3-d]pyrimidin-4-yl)pyrazol-1-yl]propanenitrile

> <PUBCHEM_IUPAC_CAS_NAME>
(3R)-3-(2,2,3,3,4,4,5,5-octadeuteriocyclopentyl)-3-[4-(7H-pyrrolo[2,3-d]pyrimidin-4-yl)-1-pyrazolyl]propanenitrile

> <PUBCHEM_IUPAC_NAME_MARKUP>
(3<I>R</I>)-3-(2,2,3,3,4,4,5,5-octadeuteriocyclopentyl)-3-[4-(7<I>H</I>-pyrrolo[2,3-d]pyrimidin-4-yl)pyrazol-1-yl]propanenitrile

> <PUBCHEM_IUPAC_NAME>
(3R)-3-(2,2,3,3,4,4,5,5-octadeuteriocyclopentyl)-3-[4-(7H-pyrrolo[2,3-d]pyrimidin-4-yl)pyrazol-1-yl]propanenitrile

> <PUBCHEM_IUPAC_SYSTEMATIC_NAME>
(3R)-3-(2,2,3,3,4,4,5,5-octadeuteriocyclopentyl)-3-[4-(7H-pyrrolo[2,3-d]pyrimidin-4-yl)pyrazol-1-yl]propanenitrile

> <PUBCHEM_IUPAC_TRADITIONAL_NAME>
(3R)-3-(2,2,3,3,4,4,5,5-octadeuteriocyclopentyl)-3-[4-(7H-pyrrolo[2,3-d]pyrimidin-4-yl)pyrazol-1-yl]propionitrile

> <PUBCHEM_IUPAC_INCHI>
InChI=1S/C17H18N6/c18-7-5-15(12-3-1-2-4-12)23-10-13(9-22-23)16-14-6-8-19-17(14)21-11-20-16/h6,8-12,15H,1-5H2,(H,19,20,21)/t15-/m1/s1/i1D2,2D2,3D2,4D2

> <PUBCHEM_IUPAC_INCHIKEY>
HFNKQEVNSGCOJV-FBXGHSCESA-N

> <PUBCHEM_XLOGP3_AA>
2.1

> <PUBCHEM_EXACT_MASS>
314.20950857

> <PUBCHEM_MOLECULAR_FORMULA>
C17H18N6

> <PUBCHEM_MOLECULAR_WEIGHT>
314.41

> <PUBCHEM_OPENEYE_CAN_SMILES>
C1CCC(C1)C(CC#N)N2C=C(C=N2)C3=C4C=CNC4=NC=N3

> <PUBCHEM_OPENEYE_ISO_SMILES>
[2H]C1(C(C(C(C1([2H])[2H])([2H])[2H])([2H])[2H])[C@@H](CC#N)N2C=C(C=N2)C3=C4C=CNC4=NC=N3)[2H]

> <PUBCHEM_CACTVS_TPSA>
83.2

> <PUBCHEM_MONOISOTOPIC_WEIGHT>
314.20950857

> <PUBCHEM_TOTAL_CHARGE>
0

> <PUBCHEM_HEAVY_ATOM_COUNT>
23

> <PUBCHEM_ATOM_DEF_STEREO_COUNT>
1

> <PUBCHEM_ATOM_UDEF_STEREO_COUNT>
0

> <PUBCHEM_BOND_DEF_STEREO_COUNT>
0

> <PUBCHEM_BOND_UDEF_STEREO_COUNT>
0

> <PUBCHEM_ISOTOPIC_ATOM_COUNT>
8

> <PUBCHEM_COMPONENT_COUNT>
1

> <PUBCHEM_CACTVS_TAUTO_COUNT>
-1

> <PUBCHEM_COORDINATE_TYPE>
1
5
255

> <PUBCHEM_BONDANNOTATIONS>
1  14  8
1  2  8
10  13  6
14  15  8
15  17  8
18  19  8
19  20  8
19  21  8
2  17  8
21  22  8
3  18  8
3  23  8
5  20  8
5  22  8
6  20  8
6  23  8

$$$$
72202701
  -OEChem-11282412102D

 46 51  0     0  0  0  0  0  0999 V2000
   10.2962    1.0175    0.0000 F   0  0  0  0  0  0  0  0  0  0  0  0
    8.3952    0.3962    0.0000 F   0  0  0  0  0  0  0  0  0  0  0  0
    8.0100   -0.7818    0.0000 F   0  0  0  0  0  0  0  0  0  0  0  0
    3.9081    1.1257    0.0000 N   0  0  0  0  0  0  0  0  0  0  0  0
    4.4081    0.2597    0.0000 N   0  0  0  0  0  0  0  0  0  0  0  0
    8.0888    1.9621    0.0000 N   0  0  0  0  0  0  0  0  0  0  0  0
    7.2228    1.4621    0.0000 N   0  0  0  0  0  0  0  0  0  0  0  0
    9.6186    2.4621    0.0000 N   0  0  0  0  0  0  0  0  0  0  0  0
   11.7503   -2.7942    0.0000 N   0  0  0  0  0  0  0  0  0  0  0  0
    9.0350    3.2668    0.0000 N   0  0  0  0  0  0  0  0  0  0  0  0
   10.7784   -3.0035    0.0000 N   0  0  0  0  0  0  0  0  0  0  0  0
    2.9136    1.2302    0.0000 C   0  0  0  0  0  0  0  0  0  0  0  0
    2.1045    1.8180    0.0000 C   0  0  0  0  0  0  0  0  0  0  0  0
    2.0000    0.8235    0.0000 C   0  0  0  0  0  0  0  0  0  0  0  0
    4.5772    1.8688    0.0000 C   0  0  0  0  0  0  0  0  0  0  0  0
    5.4907    1.4621    0.0000 C   0  0  0  0  0  0  0  0  0  0  0  0
    5.3862    0.4676    0.0000 C   0  0  0  0  0  0  0  0  0  0  0  0
    6.3568    1.9621    0.0000 C   0  0  0  0  0  0  0  0  0  0  0  0
    9.3457    0.7068    0.0000 C   0  0  0  0  0  0  0  0  0  0  0  0
    6.3568    2.9621    0.0000 C   0  0  0  0  0  0  0  0  0  0  0  0
    9.0350    1.6574    0.0000 C   0  0  0  0  0  0  0  0  0  0  0  0
    9.6564   -0.2437    0.0000 C   0  0  0  0  0  0  0  0  0  0  0  0
    8.0888    2.9621    0.0000 C   0  0  0  0  0  0  0  0  0  0  0  0
    7.2228    3.4621    0.0000 C   0  0  0  0  0  0  0  0  0  0  0  0
   10.9455   -1.4004    0.0000 C   0  0  0  0  0  0  0  0  0  0  0  0
   10.6349   -0.4499    0.0000 C   0  0  0  0  0  0  0  0  0  0  0  0
   10.2777   -2.1447    0.0000 C   0  0  0  0  0  0  0  0  0  0  0  0
    8.9885   -0.9880    0.0000 C   0  0  0  0  0  0  0  0  0  0  0  0
    9.2992   -1.9385    0.0000 C   0  0  0  0  0  0  0  0  0  0  0  0
   11.8533   -1.8055    0.0000 C   0  0  0  0  0  0  0  0  0  0  0  0
   12.4946   -3.4621    0.0000 C   0  0  0  0  0  0  0  0  0  0  0  0
    3.0105    0.6178    0.0000 H   0  0  0  0  0  0  0  0  0  0  0  0
    2.3763    2.3752    0.0000 H   0  0  0  0  0  0  0  0  0  0  0  0
    1.5086    1.9889    0.0000 H   0  0  0  0  0  0  0  0  0  0  0  0
    1.3815    0.7802    0.0000 H   0  0  0  0  0  0  0  0  0  0  0  0
    2.1500    0.2219    0.0000 H   0  0  0  0  0  0  0  0  0  0  0  0
    4.4483    2.4753    0.0000 H   0  0  0  0  0  0  0  0  0  0  0  0
    5.8470    0.0527    0.0000 H   0  0  0  0  0  0  0  0  0  0  0  0
    5.8198    3.2721    0.0000 H   0  0  0  0  0  0  0  0  0  0  0  0
    7.2228    4.0821    0.0000 H   0  0  0  0  0  0  0  0  0  0  0  0
   11.0489    0.0116    0.0000 H   0  0  0  0  0  0  0  0  0  0  0  0
    8.8851   -2.4000    0.0000 H   0  0  0  0  0  0  0  0  0  0  0  0
   12.3903   -1.4955    0.0000 H   0  0  0  0  0  0  0  0  0  0  0  0
   12.0805   -3.9236    0.0000 H   0  0  0  0  0  0  0  0  0  0  0  0
   12.9560   -3.8762    0.0000 H   0  0  0  0  0  0  0  0  0  0  0  0
   12.9086   -3.0006    0.0000 H   0  0  0  0  0  0  0  0  0  0  0  0
  1 19  1  0  0  0  0
  2 19  1  0  0  0  0
  3 28  1  0  0  0  0
  4  5  1  0  0  0  0
  4 12  1  0  0  0  0
  4 15  1  0  0  0  0
  5 17  2  0  0  0  0
  6  7  1  0  0  0  0
  6 21  1  0  0  0  0
  6 23  1  0  0  0  0
  7 18  2  0  0  0  0
  8 10  1  0  0  0  0
  8 21  2  0  0  0  0
  9 11  1  0  0  0  0
  9 30  1  0  0  0  0
  9 31  1  0  0  0  0
 10 23  2  0  0  0  0
 11 27  2  0  0  0  0
 12 13  1  0  0  0  0
 12 14  1  0  0  0  0
 12 32  1  0  0  0  0
 13 14  1  0  0  0  0
 13 33  1  0  0  0  0
 13 34  1  0  0  0  0
 14 35  1  0  0  0  0
 14 36  1  0  0  0  0
 15 16  2  0  0  0  0
 15 37  1  0  0  0  0
 16 17  1  0  0  0  0
 16 18  1  0  0  0  0
 17 38  1  0  0  0  0
 18 20  1  0  0  0  0
 19 21  1  0  0  0  0
 19 22  1  0  0  0  0
 20 24  2  0  0  0  0
 20 39  1  0  0  0  0
 22 26  2  0  0  0  0
 22 28  1  0  0  0  0
 23 24  1  0  0  0  0
 24 40  1  0  0  0  0
 25 26  1  0  0  0  0
 25 27  1  0  0  0  0
 25 30  2  0  0  0  0
 26 41  1  0  0  0  0
 27 29  1  0  0  0  0
 28 29  2  0  0  0  0
 29 42  1  0  0  0  0
 30 43  1  0  0  0  0
 31 44  1  0  0  0  0
 31 45  1  0  0  0  0
 31 46  1  0  0  0  0
M  END
> <PUBCHEM_COMPOUND_CID>
72202701

> <PUBCHEM_COMPOUND_CANONICALIZED>
1

> <PUBCHEM_CACTVS_COMPLEXITY>
681

> <PUBCHEM_CACTVS_HBOND_ACCEPTOR>
8

> <PUBCHEM_CACTVS_HBOND_DONOR>
0

> <PUBCHEM_CACTVS_ROTATABLE_BOND>
4

> <PUBCHEM_CACTVS_SUBSKEYS>
AAADccB7wYAAAAAAAAAAAAAAGAAAAWLFgAA8QAAAAAAAAFgB/gAAHQAIAAAADCjBHxw/8P4IEACiAzZnZACShCsxgqAd2CA4ZJiIKKLA2dGEpAhgiALIyCcQgMAOCAACAAACAAAQAAQAAAQAAAAAAAAAAA==

> <PUBCHEM_IUPAC_OPENEYE_NAME>
6-(1-cyclopropylpyrazol-4-yl)-3-[difluoro-(6-fluoro-2-methyl-indazol-5-yl)methyl]-[1,2,4]triazolo[4,3-b]pyridazine

> <PUBCHEM_IUPAC_CAS_NAME>
6-(1-cyclopropyl-4-pyrazolyl)-3-[difluoro-(6-fluoro-2-methyl-5-indazolyl)methyl]-[1,2,4]triazolo[4,3-b]pyridazine

> <PUBCHEM_IUPAC_NAME_MARKUP>
6-(1-cyclopropylpyrazol-4-yl)-3-[difluoro-(6-fluoro-2-methylindazol-5-yl)methyl]-[1,2,4]triazolo[4,3-b]pyridazine

> <PUBCHEM_IUPAC_NAME>
6-(1-cyclopropylpyrazol-4-yl)-3-[difluoro-(6-fluoro-2-methylindazol-5-yl)methyl]-[1,2,4]triazolo[4,3-b]pyridazine

> <PUBCHEM_IUPAC_SYSTEMATIC_NAME>
3-[bis(fluoranyl)-(6-fluoranyl-2-methyl-indazol-5-yl)methyl]-6-(1-cyclopropylpyrazol-4-yl)-[1,2,4]triazolo[4,3-b]pyridazine

> <PUBCHEM_IUPAC_TRADITIONAL_NAME>
6-(1-cyclopropylpyrazol-4-yl)-3-[difluoro-(6-fluoro-2-methyl-indazol-5-yl)methyl]-[1,2,4]triazolo[4,3-b]pyridazine

> <PUBCHEM_IUPAC_INCHI>
InChI=1S/C20H15F3N8/c1-29-9-11-6-14(15(21)7-17(11)27-29)20(22,23)19-26-25-18-5-4-16(28-31(18)19)12-8-24-30(10-12)13-2-3-13/h4-10,13H,2-3H2,1H3

> <PUBCHEM_IUPAC_INCHIKEY>
QHXLXUIZUCJRKV-UHFFFAOYSA-N

> <PUBCHEM_XLOGP3_AA>
2.1

> <PUBCHEM_EXACT_MASS>
424.13717700

> <PUBCHEM_MOLECULAR_FORMULA>
C20H15F3N8

> <PUBCHEM_MOLECULAR_WEIGHT>
424.4

> <PUBCHEM_OPENEYE_CAN_SMILES>
CN1C=C2C=C(C(=CC2=N1)F)C(C3=NN=C4N3N=C(C=C4)C5=CN(N=C5)C6CC6)(F)F

> <PUBCHEM_OPENEYE_ISO_SMILES>
CN1C=C2C=C(C(=CC2=N1)F)C(C3=NN=C4N3N=C(C=C4)C5=CN(N=C5)C6CC6)(F)F

> <PUBCHEM_CACTVS_TPSA>
78.7

> <PUBCHEM_MONOISOTOPIC_WEIGHT>
424.13717700

> <PUBCHEM_TOTAL_CHARGE>
0

> <PUBCHEM_HEAVY_ATOM_COUNT>
31

> <PUBCHEM_ATOM_DEF_STEREO_COUNT>
0

> <PUBCHEM_ATOM_UDEF_STEREO_COUNT>
0

> <PUBCHEM_BOND_DEF_STEREO_COUNT>
0

> <PUBCHEM_BOND_UDEF_STEREO_COUNT>
0

> <PUBCHEM_ISOTOPIC_ATOM_COUNT>
0

> <PUBCHEM_COMPONENT_COUNT>
1

> <PUBCHEM_CACTVS_TAUTO_COUNT>
-1

> <PUBCHEM_COORDINATE_TYPE>
1
5
255

> <PUBCHEM_BONDANNOTATIONS>
10  23  8
11  27  8
15  16  8
16  17  8
18  20  8
20  24  8
22  26  8
22  28  8
23  24  8
25  26  8
25  27  8
25  30  8
27  29  8
28  29  8
4  15  8
4  5  8
5  17  8
6  21  8
6  23  8
6  7  8
7  18  8
8  10  8
8  21  8
9  11  8
9  30  8

$$$$
126506029
  -OEChem-11282412102D

 70 73  0     1  0  0  0  0  0999 V2000
    7.5315    9.9558    0.0000 O   0  0  0  0  0  0  0  0  0  0  0  0
    9.8835    2.9028    0.0000 O   0  0  0  0  0  0  0  0  0  0  0  0
    4.0010    5.9795    0.0000 O   0  0  0  0  0  0  0  0  0  0  0  0
    0.5369    7.9795    0.0000 O   0  0  0  0  0  0  0  0  0  0  0  0
    2.2690    5.9795    0.0000 O   0  0  0  0  0  0  0  0  0  0  0  0
    1.4030    6.4795    0.0000 O   0  0  0  0  0  0  0  0  0  0  0  0
    9.0330   10.8192    0.0000 N   0  0  0  0  0  0  0  0  0  0  0  0
    8.3625    8.7539    0.0000 N   0  0  0  0  0  0  0  0  0  0  0  0
    9.8923    8.2539    0.0000 N   0  0  0  0  0  0  0  0  0  0  0  0
    6.6304    7.7539    0.0000 N   0  0  0  0  0  0  0  0  0  0  0  0
    7.4965    6.2539    0.0000 N   0  0  0  0  0  0  0  0  0  0  0  0
   11.5299    3.4409    0.0000 N   0  0  0  0  0  0  0  0  0  0  0  0
   12.8190    2.2841    0.0000 N   0  0  0  0  0  0  0  0  0  0  0  0
    9.6194   10.0092    0.0000 C   0  0  1  0  0  0  0  0  0  0  0  0
   10.5710   10.3165    0.0000 C   0  0  0  0  0  0  0  0  0  0  0  0
   10.5727   11.3165    0.0000 C   0  0  0  0  0  0  0  0  0  0  0  0
    9.6222   11.6272    0.0000 C   0  0  0  0  0  0  0  0  0  0  0  0
    9.3087    9.0586    0.0000 C   0  0  0  0  0  0  0  0  0  0  0  0
    8.0330   10.8209    0.0000 C   0  0  0  0  0  0  0  0  0  0  0  0
    8.3625    7.7539    0.0000 C   0  0  0  0  0  0  0  0  0  0  0  0
    9.3087    7.4492    0.0000 C   0  0  0  0  0  0  0  0  0  0  0  0
    7.4965    9.2539    0.0000 C   0  0  0  0  0  0  0  0  0  0  0  0
    7.4965    7.2539    0.0000 C   0  0  0  0  0  0  0  0  0  0  0  0
    9.6194    6.4987    0.0000 C   0  0  0  0  0  0  0  0  0  0  0  0
    6.6304    8.7539    0.0000 C   0  0  0  0  0  0  0  0  0  0  0  0
    7.5345   11.6878    0.0000 C   0  0  0  0  0  0  0  0  0  0  0  0
    8.9515    5.7544    0.0000 C   0  0  0  0  0  0  0  0  0  0  0  0
   10.5979    6.2924    0.0000 C   0  0  0  0  0  0  0  0  0  0  0  0
    9.2622    4.8038    0.0000 C   0  0  0  0  0  0  0  0  0  0  0  0
   10.9085    5.3419    0.0000 C   0  0  0  0  0  0  0  0  0  0  0  0
   10.2407    4.5976    0.0000 C   0  0  0  0  0  0  0  0  0  0  0  0
    7.0360   12.5547    0.0000 C   0  0  0  0  0  0  0  0  0  0  0  0
   10.5514    3.6471    0.0000 C   0  0  0  0  0  0  0  0  0  0  0  0
    6.5375   13.4216    0.0000 C   0  0  0  0  0  0  0  0  0  0  0  0
   11.8405    2.4904    0.0000 C   0  0  0  0  0  0  0  0  0  0  0  0
   11.1727    1.7461    0.0000 C   0  0  0  0  0  0  0  0  0  0  0  0
   11.4833    0.7955    0.0000 C   0  0  0  0  0  0  0  0  0  0  0  0
   13.1297    1.3336    0.0000 C   0  0  0  0  0  0  0  0  0  0  0  0
   12.4618    0.5893    0.0000 C   0  0  0  0  0  0  0  0  0  0  0  0
    3.1350    7.4795    0.0000 C   0  0  0  0  0  0  0  0  0  0  0  0
    2.2690    7.9795    0.0000 C   0  0  0  0  0  0  0  0  0  0  0  0
    3.1350    6.4795    0.0000 C   0  0  0  0  0  0  0  0  0  0  0  0
    1.4030    7.4795    0.0000 C   0  0  0  0  0  0  0  0  0  0  0  0
    8.7796    9.8776    0.0000 H   0  0  0  0  0  0  0  0  0  0  0  0
   10.6988    9.7099    0.0000 H   0  0  0  0  0  0  0  0  0  0  0  0
   11.1877   10.3803    0.0000 H   0  0  0  0  0  0  0  0  0  0  0  0
   11.1892   11.2507    0.0000 H   0  0  0  0  0  0  0  0  0  0  0  0
   10.7026   11.9228    0.0000 H   0  0  0  0  0  0  0  0  0  0  0  0
    9.8753   12.1932    0.0000 H   0  0  0  0  0  0  0  0  0  0  0  0
    9.0858   11.9381    0.0000 H   0  0  0  0  0  0  0  0  0  0  0  0
    7.4965    9.8739    0.0000 H   0  0  0  0  0  0  0  0  0  0  0  0
    6.0935    9.0639    0.0000 H   0  0  0  0  0  0  0  0  0  0  0  0
    8.3448    5.8822    0.0000 H   0  0  0  0  0  0  0  0  0  0  0  0
   11.0119    6.7539    0.0000 H   0  0  0  0  0  0  0  0  0  0  0  0
    6.9595    5.9439    0.0000 H   0  0  0  0  0  0  0  0  0  0  0  0
    8.0334    5.9439    0.0000 H   0  0  0  0  0  0  0  0  0  0  0  0
    8.8481    4.3424    0.0000 H   0  0  0  0  0  0  0  0  0  0  0  0
   11.5152    5.2141    0.0000 H   0  0  0  0  0  0  0  0  0  0  0  0
    7.0750   13.7307    0.0000 H   0  0  0  0  0  0  0  0  0  0  0  0
    6.2284   13.9591    0.0000 H   0  0  0  0  0  0  0  0  0  0  0  0
    6.0000   13.1125    0.0000 H   0  0  0  0  0  0  0  0  0  0  0  0
   11.9439    3.9024    0.0000 H   0  0  0  0  0  0  0  0  0  0  0  0
   10.5660    1.8739    0.0000 H   0  0  0  0  0  0  0  0  0  0  0  0
   11.0693    0.3341    0.0000 H   0  0  0  0  0  0  0  0  0  0  0  0
   13.7364    1.2058    0.0000 H   0  0  0  0  0  0  0  0  0  0  0  0
   12.6545    0.0000    0.0000 H   0  0  0  0  0  0  0  0  0  0  0  0
    3.6720    7.7895    0.0000 H   0  0  0  0  0  0  0  0  0  0  0  0
    2.2690    8.5995    0.0000 H   0  0  0  0  0  0  0  0  0  0  0  0
    4.0010    5.3595    0.0000 H   0  0  0  0  0  0  0  0  0  0  0  0
    0.0000    7.6695    0.0000 H   0  0  0  0  0  0  0  0  0  0  0  0
  1 19  2  0  0  0  0
  2 33  2  0  0  0  0
  3 42  1  0  0  0  0
  3 69  1  0  0  0  0
  4 43  1  0  0  0  0
  4 70  1  0  0  0  0
  5 42  2  0  0  0  0
  6 43  2  0  0  0  0
  7 14  1  0  0  0  0
  7 17  1  0  0  0  0
  7 19  1  0  0  0  0
  8 18  1  0  0  0  0
  8 20  1  0  0  0  0
  8 22  1  0  0  0  0
  9 18  2  0  0  0  0
  9 21  1  0  0  0  0
 10 23  2  0  0  0  0
 10 25  1  0  0  0  0
 11 23  1  0  0  0  0
 11 55  1  0  0  0  0
 11 56  1  0  0  0  0
 12 33  1  0  0  0  0
 12 35  1  0  0  0  0
 12 62  1  0  0  0  0
 13 35  1  0  0  0  0
 13 38  2  0  0  0  0
 14 15  1  0  0  0  0
 14 18  1  0  0  0  0
 14 44  1  6  0  0  0
 15 16  1  0  0  0  0
 15 45  1  0  0  0  0
 15 46  1  0  0  0  0
 16 17  1  0  0  0  0
 16 47  1  0  0  0  0
 16 48  1  0  0  0  0
 17 49  1  0  0  0  0
 17 50  1  0  0  0  0
 19 26  1  0  0  0  0
 20 21  2  0  0  0  0
 20 23  1  0  0  0  0
 21 24  1  0  0  0  0
 22 25  2  0  0  0  0
 22 51  1  0  0  0  0
 24 27  2  0  0  0  0
 24 28  1  0  0  0  0
 25 52  1  0  0  0  0
 26 32  3  0  0  0  0
 27 29  1  0  0  0  0
 27 53  1  0  0  0  0
 28 30  2  0  0  0  0
 28 54  1  0  0  0  0
 29 31  2  0  0  0  0
 29 57  1  0  0  0  0
 30 31  1  0  0  0  0
 30 58  1  0  0  0  0
 31 33  1  0  0  0  0
 32 34  1  0  0  0  0
 34 59  1  0  0  0  0
 34 60  1  0  0  0  0
 34 61  1  0  0  0  0
 35 36  2  0  0  0  0
 36 37  1  0  0  0  0
 36 63  1  0  0  0  0
 37 39  2  0  0  0  0
 37 64  1  0  0  0  0
 38 39  1  0  0  0  0
 38 65  1  0  0  0  0
 39 66  1  0  0  0  0
 40 41  2  0  0  0  0
 40 42  1  0  0  0  0
 40 67  1  0  0  0  0
 41 43  1  0  0  0  0
 41 68  1  0  0  0  0
M  END
> <PUBCHEM_COMPOUND_CID>
126506029

> <PUBCHEM_COMPOUND_CANONICALIZED>
1

> <PUBCHEM_CACTVS_COMPLEXITY>
964

> <PUBCHEM_CACTVS_HBOND_ACCEPTOR>
10

> <PUBCHEM_CACTVS_HBOND_DONOR>
4

> <PUBCHEM_CACTVS_ROTATABLE_BOND>
6

> <PUBCHEM_CACTVS_SUBSKEYS>
AAADceB7uAAAAAAAAAAAAAAAAAAAAWLAAAA8WIAAAAAAAFgB/AAAHgAQCAAADCjBnwQ/+LfMGgDoEzf3fACCgC01EqAJ2CE4dNiIbPLA3dGUNQholwLI2acYiMCOQAAAAAAAAACAAAAAAAAAAAAAAAAAAA==

> <PUBCHEM_IUPAC_OPENEYE_NAME>
4-[8-amino-3-[(2S)-1-but-2-ynoylpyrrolidin-2-yl]imidazo[1,5-a]pyrazin-1-yl]-N-(2-pyridyl)benzamide;maleic acid

> <PUBCHEM_IUPAC_CAS_NAME>
4-[8-amino-3-[(2S)-1-(1-oxobut-2-ynyl)-2-pyrrolidinyl]-1-imidazo[1,5-a]pyrazinyl]-N-(2-pyridinyl)benzamide;(Z)-2-butenedioic acid

> <PUBCHEM_IUPAC_NAME_MARKUP>
4-[8-amino-3-[(2<I>S</I>)-1-but-2-ynoylpyrrolidin-2-yl]imidazo[1,5-a]pyrazin-1-yl]-<I>N</I>-pyridin-2-ylbenzamide;(<I>Z</I>)-but-2-enedioic acid

> <PUBCHEM_IUPAC_NAME>
4-[8-amino-3-[(2S)-1-but-2-ynoylpyrrolidin-2-yl]imidazo[1,5-a]pyrazin-1-yl]-N-pyridin-2-ylbenzamide;(Z)-but-2-enedioic acid

> <PUBCHEM_IUPAC_SYSTEMATIC_NAME>
4-[8-azanyl-3-[(2S)-1-but-2-ynoylpyrrolidin-2-yl]imidazo[1,5-a]pyrazin-1-yl]-N-pyridin-2-yl-benzamide;(Z)-but-2-enedioic acid

> <PUBCHEM_IUPAC_TRADITIONAL_NAME>
4-[8-amino-3-[(2S)-1-but-2-ynoylpyrrolidin-2-yl]imidazo[1,5-a]pyrazin-1-yl]-N-(2-pyridyl)benzamide;maleic acid

> <PUBCHEM_IUPAC_INCHI>
InChI=1S/C26H23N7O2.C4H4O4/c1-2-6-21(34)32-15-5-7-19(32)25-31-22(23-24(27)29-14-16-33(23)25)17-9-11-18(12-10-17)26(35)30-20-8-3-4-13-28-20;5-3(6)1-2-4(7)8/h3-4,8-14,16,19H,5,7,15H2,1H3,(H2,27,29)(H,28,30,35);1-2H,(H,5,6)(H,7,8)/b;2-1-/t19-;/m0./s1

> <PUBCHEM_IUPAC_INCHIKEY>
JWEQLWMZHJSMEC-AFJTUFCWSA-N

> <PUBCHEM_EXACT_MASS>
581.20228161

> <PUBCHEM_MOLECULAR_FORMULA>
C30H27N7O6

> <PUBCHEM_MOLECULAR_WEIGHT>
581.6

> <PUBCHEM_OPENEYE_CAN_SMILES>
CC#CC(=O)N1CCCC1C2=NC(=C3N2C=CN=C3N)C4=CC=C(C=C4)C(=O)NC5=CC=CC=N5.C(=CC(=O)O)C(=O)O

> <PUBCHEM_OPENEYE_ISO_SMILES>
CC#CC(=O)N1CCC[C@H]1C2=NC(=C3N2C=CN=C3N)C4=CC=C(C=C4)C(=O)NC5=CC=CC=N5.C(=C\C(=O)O)\C(=O)O

> <PUBCHEM_CACTVS_TPSA>
193

> <PUBCHEM_MONOISOTOPIC_WEIGHT>
581.20228161

> <PUBCHEM_TOTAL_CHARGE>
0

> <PUBCHEM_HEAVY_ATOM_COUNT>
43

> <PUBCHEM_ATOM_DEF_STEREO_COUNT>
1

> <PUBCHEM_ATOM_UDEF_STEREO_COUNT>
0

> <PUBCHEM_BOND_DEF_STEREO_COUNT>
1

> <PUBCHEM_BOND_UDEF_STEREO_COUNT>
0

> <PUBCHEM_ISOTOPIC_ATOM_COUNT>
0

> <PUBCHEM_COMPONENT_COUNT>
2

> <PUBCHEM_CACTVS_TAUTO_COUNT>
-1

> <PUBCHEM_COORDINATE_TYPE>
1
5
255

> <PUBCHEM_BONDANNOTATIONS>
10  23  8
10  25  8
13  35  8
13  38  8
14  44  6
20  21  8
20  23  8
22  25  8
24  27  8
24  28  8
27  29  8
28  30  8
29  31  8
30  31  8
35  36  8
36  37  8
37  39  8
38  39  8
8  18  8
8  20  8
8  22  8
9  18  8
9  21  8

$$$$
67517580
  -OEChem-11282412102D

 80 80  0     0  0  0  0  0  0999 V2000
    7.4143    2.5000    0.0000 Cl  0  0  0  0  0  0  0  0  0  0  0  0
    7.4143    0.0000    0.0000 Cl  0  0  0  0  0  0  0  0  0  0  0  0
    2.4860    8.1200    0.0000 S   0  0  0  0  0  0  0  0  0  0  0  0
   11.1463   13.1200    0.0000 O   0  0  0  0  0  0  0  0  0  0  0  0
    2.9860    7.2540    0.0000 O   0  0  0  0  0  0  0  0  0  0  0  0
    1.9860    8.9860    0.0000 O   0  0  0  0  0  0  0  0  0  0  0  0
    7.9143   15.7400    0.0000 O   0  0  0  0  0  0  0  0  0  0  0  0
   13.7444   12.6200    0.0000 N   0  0  0  0  0  0  0  0  0  0  0  0
    1.6200    7.6200    0.0000 N   0  0  0  0  0  0  0  0  0  0  0  0
    4.2181   11.1200    0.0000 N   0  0  0  0  0  0  0  0  0  0  0  0
    7.6822   11.1200    0.0000 N   0  0  0  0  0  0  0  0  0  0  0  0
    5.9501   11.1200    0.0000 N   0  0  0  0  0  0  0  0  0  0  0  0
    6.8162   12.6200    0.0000 N   0  0  0  0  0  0  0  0  0  0  0  0
   13.8489   11.6255    0.0000 C   0  0  0  0  0  0  0  0  0  0  0  0
   14.6579   13.0267    0.0000 C   0  0  0  0  0  0  0  0  0  0  0  0
   14.8270   11.4176    0.0000 C   0  0  0  0  0  0  0  0  0  0  0  0
   15.3270   12.2836    0.0000 C   0  0  0  0  0  0  0  0  0  0  0  0
   12.8783   13.1200    0.0000 C   0  0  0  0  0  0  0  0  0  0  0  0
   12.0123   12.6200    0.0000 C   0  0  0  0  0  0  0  0  0  0  0  0
    1.6200    6.6200    0.0000 C   0  0  0  0  0  0  0  0  0  0  0  0
    1.6200    5.6200    0.0000 C   0  0  0  0  0  0  0  0  0  0  0  0
    0.6200    6.6200    0.0000 C   0  0  0  0  0  0  0  0  0  0  0  0
    2.6200    6.6200    0.0000 C   0  0  0  0  0  0  0  0  0  0  0  0
   10.2803   12.6200    0.0000 C   0  0  0  0  0  0  0  0  0  0  0  0
    3.3520    8.6200    0.0000 C   0  0  0  0  0  0  0  0  0  0  0  0
    3.3520    9.6200    0.0000 C   0  0  0  0  0  0  0  0  0  0  0  0
   10.2803   11.6200    0.0000 C   0  0  0  0  0  0  0  0  0  0  0  0
    9.4142   13.1200    0.0000 C   0  0  0  0  0  0  0  0  0  0  0  0
    4.2181    8.1200    0.0000 C   0  0  0  0  0  0  0  0  0  0  0  0
    4.2181   10.1200    0.0000 C   0  0  0  0  0  0  0  0  0  0  0  0
    5.0841    8.6200    0.0000 C   0  0  0  0  0  0  0  0  0  0  0  0
    9.4142   11.1200    0.0000 C   0  0  0  0  0  0  0  0  0  0  0  0
    8.5482   12.6200    0.0000 C   0  0  0  0  0  0  0  0  0  0  0  0
    8.5482   11.6200    0.0000 C   0  0  0  0  0  0  0  0  0  0  0  0
    5.0841    9.6200    0.0000 C   0  0  0  0  0  0  0  0  0  0  0  0
    5.0841   11.6200    0.0000 C   0  0  0  0  0  0  0  0  0  0  0  0
    6.8162   11.6200    0.0000 C   0  0  0  0  0  0  0  0  0  0  0  0
    5.0841   12.6200    0.0000 C   0  0  0  0  0  0  0  0  0  0  0  0
    5.9501   13.1200    0.0000 C   0  0  0  0  0  0  0  0  0  0  0  0
    4.2181   13.1200    0.0000 C   0  0  0  0  0  0  0  0  0  0  0  0
   13.2289   11.6255    0.0000 H   0  0  0  0  0  0  0  0  0  0  0  0
   13.7841   11.0089    0.0000 H   0  0  0  0  0  0  0  0  0  0  0  0
   15.1595   13.3912    0.0000 H   0  0  0  0  0  0  0  0  0  0  0  0
   14.3479   13.5637    0.0000 H   0  0  0  0  0  0  0  0  0  0  0  0
   14.6354   10.8279    0.0000 H   0  0  0  0  0  0  0  0  0  0  0  0
   15.3934   11.1654    0.0000 H   0  0  0  0  0  0  0  0  0  0  0  0
   15.8286   11.9192    0.0000 H   0  0  0  0  0  0  0  0  0  0  0  0
   15.7419   12.7443    0.0000 H   0  0  0  0  0  0  0  0  0  0  0  0
   13.2769   13.5949    0.0000 H   0  0  0  0  0  0  0  0  0  0  0  0
   12.4798   13.5949    0.0000 H   0  0  0  0  0  0  0  0  0  0  0  0
   11.6138   12.1451    0.0000 H   0  0  0  0  0  0  0  0  0  0  0  0
   12.4108   12.1451    0.0000 H   0  0  0  0  0  0  0  0  0  0  0  0
    1.0831    7.9300    0.0000 H   0  0  0  0  0  0  0  0  0  0  0  0
    1.0000    5.6200    0.0000 H   0  0  0  0  0  0  0  0  0  0  0  0
    1.6200    5.0000    0.0000 H   0  0  0  0  0  0  0  0  0  0  0  0
    2.2400    5.6200    0.0000 H   0  0  0  0  0  0  0  0  0  0  0  0
    0.6200    7.2400    0.0000 H   0  0  0  0  0  0  0  0  0  0  0  0
    0.0000    6.6200    0.0000 H   0  0  0  0  0  0  0  0  0  0  0  0
    0.6200    6.0000    0.0000 H   0  0  0  0  0  0  0  0  0  0  0  0
    2.6200    6.0000    0.0000 H   0  0  0  0  0  0  0  0  0  0  0  0
    3.2400    6.6200    0.0000 H   0  0  0  0  0  0  0  0  0  0  0  0
    2.6200    7.2400    0.0000 H   0  0  0  0  0  0  0  0  0  0  0  0
    2.8151    9.9300    0.0000 H   0  0  0  0  0  0  0  0  0  0  0  0
   10.8172   11.3100    0.0000 H   0  0  0  0  0  0  0  0  0  0  0  0
    9.4142   13.7400    0.0000 H   0  0  0  0  0  0  0  0  0  0  0  0
    4.2181    7.5000    0.0000 H   0  0  0  0  0  0  0  0  0  0  0  0
    5.6210    8.3100    0.0000 H   0  0  0  0  0  0  0  0  0  0  0  0
    9.4142   10.5000    0.0000 H   0  0  0  0  0  0  0  0  0  0  0  0
    8.0113   12.9300    0.0000 H   0  0  0  0  0  0  0  0  0  0  0  0
    5.6210    9.9300    0.0000 H   0  0  0  0  0  0  0  0  0  0  0  0
    3.6811   11.4300    0.0000 H   0  0  0  0  0  0  0  0  0  0  0  0
    7.6822   10.5000    0.0000 H   0  0  0  0  0  0  0  0  0  0  0  0
    5.9501   13.7400    0.0000 H   0  0  0  0  0  0  0  0  0  0  0  0
    4.5281   13.6569    0.0000 H   0  0  0  0  0  0  0  0  0  0  0  0
    3.6811   13.4300    0.0000 H   0  0  0  0  0  0  0  0  0  0  0  0
    3.9081   12.5831    0.0000 H   0  0  0  0  0  0  0  0  0  0  0  0
    8.4512   16.0500    0.0000 H   0  0  0  0  0  0  0  0  0  0  0  0
    7.3774   16.0500    0.0000 H   0  0  0  0  0  0  0  0  0  0  0  0
    8.4143    2.5000    0.0000 H   0  0  0  0  0  0  0  0  0  0  0  0
    8.4143    0.0000    0.0000 H   0  0  0  0  0  0  0  0  0  0  0  0
  1 79  1  0  0  0  0
  2 80  1  0  0  0  0
  3  5  2  0  0  0  0
  3  6  2  0  0  0  0
  3  9  1  0  0  0  0
  3 25  1  0  0  0  0
  4 19  1  0  0  0  0
  4 24  1  0  0  0  0
  7 77  1  0  0  0  0
  7 78  1  0  0  0  0
  8 14  1  0  0  0  0
  8 15  1  0  0  0  0
  8 18  1  0  0  0  0
  9 20  1  0  0  0  0
  9 53  1  0  0  0  0
 10 30  1  0  0  0  0
 10 36  1  0  0  0  0
 10 71  1  0  0  0  0
 11 34  1  0  0  0  0
 11 37  1  0  0  0  0
 11 72  1  0  0  0  0
 12 36  2  0  0  0  0
 12 37  1  0  0  0  0
 13 37  2  0  0  0  0
 13 39  1  0  0  0  0
 14 16  1  0  0  0  0
 14 41  1  0  0  0  0
 14 42  1  0  0  0  0
 15 17  1  0  0  0  0
 15 43  1  0  0  0  0
 15 44  1  0  0  0  0
 16 17  1  0  0  0  0
 16 45  1  0  0  0  0
 16 46  1  0  0  0  0
 17 47  1  0  0  0  0
 17 48  1  0  0  0  0
 18 19  1  0  0  0  0
 18 49  1  0  0  0  0
 18 50  1  0  0  0  0
 19 51  1  0  0  0  0
 19 52  1  0  0  0  0
 20 21  1  0  0  0  0
 20 22  1  0  0  0  0
 20 23  1  0  0  0  0
 21 54  1  0  0  0  0
 21 55  1  0  0  0  0
 21 56  1  0  0  0  0
 22 57  1  0  0  0  0
 22 58  1  0  0  0  0
 22 59  1  0  0  0  0
 23 60  1  0  0  0  0
 23 61  1  0  0  0  0
 23 62  1  0  0  0  0
 24 27  2  0  0  0  0
 24 28  1  0  0  0  0
 25 26  1  0  0  0  0
 25 29  2  0  0  0  0
 26 30  2  0  0  0  0
 26 63  1  0  0  0  0
 27 32  1  0  0  0  0
 27 64  1  0  0  0  0
 28 33  2  0  0  0  0
 28 65  1  0  0  0  0
 29 31  1  0  0  0  0
 29 66  1  0  0  0  0
 30 35  1  0  0  0  0
 31 35  2  0  0  0  0
 31 67  1  0  0  0  0
 32 34  2  0  0  0  0
 32 68  1  0  0  0  0
 33 34  1  0  0  0  0
 33 69  1  0  0  0  0
 35 70  1  0  0  0  0
 36 38  1  0  0  0  0
 38 39  2  0  0  0  0
 38 40  1  0  0  0  0
 39 73  1  0  0  0  0
 40 74  1  0  0  0  0
 40 75  1  0  0  0  0
 40 76  1  0  0  0  0
M  END
> <PUBCHEM_COMPOUND_CID>
67517580

> <PUBCHEM_COMPOUND_CANONICALIZED>
1

> <PUBCHEM_CACTVS_COMPLEXITY>
787

> <PUBCHEM_CACTVS_HBOND_ACCEPTOR>
10

> <PUBCHEM_CACTVS_HBOND_DONOR>
6

> <PUBCHEM_CACTVS_ROTATABLE_BOND>
11

> <PUBCHEM_CACTVS_SUBSKEYS>
AAADcfB7uABGAAAAAAAAAAAAAAAAAWAAAAA8YIAAAAAAAAAB0AAAHgQQSAAADIzh2gY/95fIFAKgAjZnZHDCiDkxIqAJ2DgubJiOLuLE+duHPCzs0BPY6CewQAAAAEAAACAAAAAAgAAAQAAAAAAAAAAAAA==

> <PUBCHEM_IUPAC_OPENEYE_NAME>
N-tert-butyl-3-[[5-methyl-2-[4-(2-pyrrolidin-1-ylethoxy)anilino]pyrimidin-4-yl]amino]benzenesulfonamide;hydrate;dihydrochloride

> <PUBCHEM_IUPAC_CAS_NAME>
N-tert-butyl-3-[[5-methyl-2-[4-[2-(1-pyrrolidinyl)ethoxy]anilino]-4-pyrimidinyl]amino]benzenesulfonamide;hydrate;dihydrochloride

> <PUBCHEM_IUPAC_NAME_MARKUP>
<I>N</I>-<I>tert</I>-butyl-3-[[5-methyl-2-[4-(2-pyrrolidin-1-ylethoxy)anilino]pyrimidin-4-yl]amino]benzenesulfonamide;hydrate;dihydrochloride

> <PUBCHEM_IUPAC_NAME>
N-tert-butyl-3-[[5-methyl-2-[4-(2-pyrrolidin-1-ylethoxy)anilino]pyrimidin-4-yl]amino]benzenesulfonamide;hydrate;dihydrochloride

> <PUBCHEM_IUPAC_SYSTEMATIC_NAME>
N-tert-butyl-3-[[5-methyl-2-[[4-(2-pyrrolidin-1-ylethoxy)phenyl]amino]pyrimidin-4-yl]amino]benzenesulfonamide;hydrate;dihydrochloride

> <PUBCHEM_IUPAC_TRADITIONAL_NAME>
N-tert-butyl-3-[[5-methyl-2-[4-(2-pyrrolidinoethoxy)anilino]pyrimidin-4-yl]amino]benzenesulfonamide;hydrate;dihydrochloride

> <PUBCHEM_IUPAC_INCHI>
InChI=1S/C27H36N6O3S.2ClH.H2O/c1-20-19-28-26(30-21-10-12-23(13-11-21)36-17-16-33-14-5-6-15-33)31-25(20)29-22-8-7-9-24(18-22)37(34,35)32-27(2,3)4;;;/h7-13,18-19,32H,5-6,14-17H2,1-4H3,(H2,28,29,30,31);2*1H;1H2

> <PUBCHEM_IUPAC_INCHIKEY>
QAFZLTVOFJHYDF-UHFFFAOYSA-N

> <PUBCHEM_EXACT_MASS>
614.2208803

> <PUBCHEM_MOLECULAR_FORMULA>
C27H40Cl2N6O4S

> <PUBCHEM_MOLECULAR_WEIGHT>
615.6

> <PUBCHEM_OPENEYE_CAN_SMILES>
CC1=CN=C(N=C1NC2=CC(=CC=C2)S(=O)(=O)NC(C)(C)C)NC3=CC=C(C=C3)OCCN4CCCC4.O.Cl.Cl

> <PUBCHEM_OPENEYE_ISO_SMILES>
CC1=CN=C(N=C1NC2=CC(=CC=C2)S(=O)(=O)NC(C)(C)C)NC3=CC=C(C=C3)OCCN4CCCC4.O.Cl.Cl

> <PUBCHEM_CACTVS_TPSA>
118

> <PUBCHEM_MONOISOTOPIC_WEIGHT>
614.2208803

> <PUBCHEM_TOTAL_CHARGE>
0

> <PUBCHEM_HEAVY_ATOM_COUNT>
40

> <PUBCHEM_ATOM_DEF_STEREO_COUNT>
0

> <PUBCHEM_ATOM_UDEF_STEREO_COUNT>
0

> <PUBCHEM_BOND_DEF_STEREO_COUNT>
0

> <PUBCHEM_BOND_UDEF_STEREO_COUNT>
0

> <PUBCHEM_ISOTOPIC_ATOM_COUNT>
0

> <PUBCHEM_COMPONENT_COUNT>
4

> <PUBCHEM_CACTVS_TAUTO_COUNT>
-1

> <PUBCHEM_COORDINATE_TYPE>
1
5
255

> <PUBCHEM_BONDANNOTATIONS>
12  36  8
12  37  8
13  37  8
13  39  8
24  27  8
24  28  8
25  26  8
25  29  8
26  30  8
27  32  8
28  33  8
29  31  8
30  35  8
31  35  8
32  34  8
33  34  8
36  38  8
38  39  8

$$$$
134611548
  -OEChem-11282412102D

 58 61  0     0  0  0  0  0  0999 V2000
    7.6601    0.6531    0.0000 O   0  0  0  0  0  0  0  0  0  0  0  0
    9.6601   -2.8110    0.0000 O   0  0  0  0  0  0  0  0  0  0  0  0
    4.6714    0.7562    0.0000 N   0  0  0  0  0  0  0  0  0  0  0  0
    6.0652    1.5609    0.0000 N   0  0  0  0  0  0  0  0  0  0  0  0
    4.4622    3.7280    0.0000 N   0  0  0  0  0  0  0  0  0  0  0  0
    2.6499    3.5327    0.0000 N   0  0  0  0  0  0  0  0  0  0  0  0
    7.6601   -1.0789    0.0000 N   0  0  0  0  0  0  0  0  0  0  0  0
    2.6213   -4.1221    0.0000 N   0  0  0  0  0  0  0  0  0  0  0  0
    4.0035    0.0119    0.0000 C   0  0  0  0  0  0  0  0  0  0  0  0
    2.6678   -1.4767    0.0000 C   0  0  0  0  0  0  0  0  0  0  0  0
    3.0250    0.2181    0.0000 C   0  0  0  0  0  0  0  0  0  0  0  0
    4.3142   -0.9386    0.0000 C   0  0  0  0  0  0  0  0  0  0  0  0
    2.3572   -0.5262    0.0000 C   0  0  0  0  0  0  0  0  0  0  0  0
    3.6464   -1.6829    0.0000 C   0  0  0  0  0  0  0  0  0  0  0  0
    2.0000   -2.2210    0.0000 C   0  0  0  0  0  0  0  0  0  0  0  0
    4.4622    1.7280    0.0000 C   0  0  0  0  0  0  0  0  0  0  0  0
    5.6601    0.6531    0.0000 C   0  0  0  0  0  0  0  0  0  0  0  0
    5.3282    2.2280    0.0000 C   0  0  0  0  0  0  0  0  0  0  0  0
    3.5962    2.2280    0.0000 C   0  0  0  0  0  0  0  0  0  0  0  0
    6.1601   -0.2129    0.0000 C   0  0  0  0  0  0  0  0  0  0  0  0
    3.5962    3.2280    0.0000 C   0  0  0  0  0  0  0  0  0  0  0  0
    2.3107   -3.1715    0.0000 C   0  0  0  0  0  0  0  0  0  0  0  0
    5.3282    3.2280    0.0000 C   0  0  0  0  0  0  0  0  0  0  0  0
    2.6499    1.9233    0.0000 C   0  0  0  0  0  0  0  0  0  0  0  0
    7.1601   -0.2129    0.0000 C   0  0  0  0  0  0  0  0  0  0  0  0
    2.0663    2.7280    0.0000 C   0  0  0  0  0  0  0  0  0  0  0  0
    8.6601   -1.0789    0.0000 C   0  0  0  0  0  0  0  0  0  0  0  0
    9.1601   -1.9449    0.0000 C   0  0  0  0  0  0  0  0  0  0  0  0
   10.0261   -1.4449    0.0000 C   0  0  0  0  0  0  0  0  0  0  0  0
    8.2941   -2.4449    0.0000 C   0  0  0  0  0  0  0  0  0  0  0  0
    4.6102   -0.1160    0.0000 H   0  0  0  0  0  0  0  0  0  0  0  0
    2.0612   -1.3489    0.0000 H   0  0  0  0  0  0  0  0  0  0  0  0
    3.2563    0.7934    0.0000 H   0  0  0  0  0  0  0  0  0  0  0  0
    2.4987    0.5457    0.0000 H   0  0  0  0  0  0  0  0  0  0  0  0
    4.6968   -1.4265    0.0000 H   0  0  0  0  0  0  0  0  0  0  0  0
    4.8611   -0.6466    0.0000 H   0  0  0  0  0  0  0  0  0  0  0  0
    1.9746   -0.0383    0.0000 H   0  0  0  0  0  0  0  0  0  0  0  0
    1.8103   -0.8182    0.0000 H   0  0  0  0  0  0  0  0  0  0  0  0
    3.4151   -2.2582    0.0000 H   0  0  0  0  0  0  0  0  0  0  0  0
    4.1727   -2.0106    0.0000 H   0  0  0  0  0  0  0  0  0  0  0  0
    1.6174   -1.7331    0.0000 H   0  0  0  0  0  0  0  0  0  0  0  0
    1.4531   -2.5130    0.0000 H   0  0  0  0  0  0  0  0  0  0  0  0
    5.5775   -0.4249    0.0000 H   0  0  0  0  0  0  0  0  0  0  0  0
    6.2678   -0.8235    0.0000 H   0  0  0  0  0  0  0  0  0  0  0  0
    5.8651    3.5380    0.0000 H   0  0  0  0  0  0  0  0  0  0  0  0
    2.4573    1.3340    0.0000 H   0  0  0  0  0  0  0  0  0  0  0  0
    2.4573    4.1221    0.0000 H   0  0  0  0  0  0  0  0  0  0  0  0
    1.4463    2.7280    0.0000 H   0  0  0  0  0  0  0  0  0  0  0  0
    7.3501   -1.6158    0.0000 H   0  0  0  0  0  0  0  0  0  0  0  0
    9.2427   -0.8669    0.0000 H   0  0  0  0  0  0  0  0  0  0  0  0
    8.5524   -0.4683    0.0000 H   0  0  0  0  0  0  0  0  0  0  0  0
   10.3361   -1.9819    0.0000 H   0  0  0  0  0  0  0  0  0  0  0  0
   10.5631   -1.1349    0.0000 H   0  0  0  0  0  0  0  0  0  0  0  0
    9.7161   -0.9080    0.0000 H   0  0  0  0  0  0  0  0  0  0  0  0
    7.9841   -1.9080    0.0000 H   0  0  0  0  0  0  0  0  0  0  0  0
    7.7571   -2.7549    0.0000 H   0  0  0  0  0  0  0  0  0  0  0  0
    8.6041   -2.9819    0.0000 H   0  0  0  0  0  0  0  0  0  0  0  0
   10.2801   -2.8110    0.0000 H   0  0  0  0  0  0  0  0  0  0  0  0
  1 25  2  0  0  0  0
  2 28  1  0  0  0  0
  2 58  1  0  0  0  0
  3  9  1  0  0  0  0
  3 16  1  0  0  0  0
  3 17  1  0  0  0  0
  4 17  2  0  0  0  0
  4 18  1  0  0  0  0
  5 21  2  0  0  0  0
  5 23  1  0  0  0  0
  6 21  1  0  0  0  0
  6 26  1  0  0  0  0
  6 47  1  0  0  0  0
  7 25  1  0  0  0  0
  7 27  1  0  0  0  0
  7 49  1  0  0  0  0
  8 22  3  0  0  0  0
  9 11  1  0  0  0  0
  9 12  1  0  0  0  0
  9 31  1  0  0  0  0
 10 13  1  0  0  0  0
 10 14  1  0  0  0  0
 10 15  1  0  0  0  0
 10 32  1  0  0  0  0
 11 13  1  0  0  0  0
 11 33  1  0  0  0  0
 11 34  1  0  0  0  0
 12 14  1  0  0  0  0
 12 35  1  0  0  0  0
 12 36  1  0  0  0  0
 13 37  1  0  0  0  0
 13 38  1  0  0  0  0
 14 39  1  0  0  0  0
 14 40  1  0  0  0  0
 15 22  1  0  0  0  0
 15 41  1  0  0  0  0
 15 42  1  0  0  0  0
 16 18  1  0  0  0  0
 16 19  2  0  0  0  0
 17 20  1  0  0  0  0
 18 23  2  0  0  0  0
 19 21  1  0  0  0  0
 19 24  1  0  0  0  0
 20 25  1  0  0  0  0
 20 43  1  0  0  0  0
 20 44  1  0  0  0  0
 23 45  1  0  0  0  0
 24 26  2  0  0  0  0
 24 46  1  0  0  0  0
 26 48  1  0  0  0  0
 27 28  1  0  0  0  0
 27 50  1  0  0  0  0
 27 51  1  0  0  0  0
 28 29  1  0  0  0  0
 28 30  1  0  0  0  0
 29 52  1  0  0  0  0
 29 53  1  0  0  0  0
 29 54  1  0  0  0  0
 30 55  1  0  0  0  0
 30 56  1  0  0  0  0
 30 57  1  0  0  0  0
M  END
> <PUBCHEM_COMPOUND_CID>
134611548

> <PUBCHEM_COMPOUND_CANONICALIZED>
1

> <PUBCHEM_CACTVS_COMPLEXITY>
668

> <PUBCHEM_CACTVS_HBOND_ACCEPTOR>
5

> <PUBCHEM_CACTVS_HBOND_DONOR>
3

> <PUBCHEM_CACTVS_ROTATABLE_BOND>
6

> <PUBCHEM_CACTVS_SUBSKEYS>
AAADceB7sAAAAAAAAAAAAAAAAAAAAWLAAAA8QAAAAAAAAFgB/gAAHgAQCAAADWzBnwQ/8P/NkgC4Bzd3dACCgC2xEqAJ2aE4dJiK6OrA2NGUJAholgLYyC8QgIAOAAAAAAAAAAAQAAAAAAAAAAAAAAAAAA==

> <PUBCHEM_IUPAC_OPENEYE_NAME>
2-[3-[4-(cyanomethyl)cyclohexyl]-3,5,8,10-tetrazatricyclo[7.3.0.02,6]dodeca-1,4,6,8,11-pentaen-4-yl]-N-(2-hydroxy-2-methyl-propyl)acetamide

> <PUBCHEM_IUPAC_CAS_NAME>
2-[3-[4-(cyanomethyl)cyclohexyl]-3,5,8,10-tetrazatricyclo[7.3.0.02,6]dodeca-1,4,6,8,11-pentaen-4-yl]-N-(2-hydroxy-2-methylpropyl)acetamide

> <PUBCHEM_IUPAC_NAME_MARKUP>
2-[3-[4-(cyanomethyl)cyclohexyl]-3,5,8,10-tetrazatricyclo[7.3.0.0<SUP>2,6</SUP>]dodeca-1,4,6,8,11-pentaen-4-yl]-<I>N</I>-(2-hydroxy-2-methylpropyl)acetamide

> <PUBCHEM_IUPAC_NAME>
2-[3-[4-(cyanomethyl)cyclohexyl]-3,5,8,10-tetrazatricyclo[7.3.0.02,6]dodeca-1,4,6,8,11-pentaen-4-yl]-N-(2-hydroxy-2-methylpropyl)acetamide

> <PUBCHEM_IUPAC_SYSTEMATIC_NAME>
2-[3-[4-(cyanomethyl)cyclohexyl]-3,5,8,10-tetrazatricyclo[7.3.0.02,6]dodeca-1,4,6,8,11-pentaen-4-yl]-N-(2-methyl-2-oxidanyl-propyl)ethanamide

> <PUBCHEM_IUPAC_TRADITIONAL_NAME>
2-[3-[4-(cyanomethyl)cyclohexyl]-3,5,8,10-tetrazatricyclo[7.3.0.02,6]dodeca-1,4,6,8,11-pentaen-4-yl]-N-(2-hydroxy-2-methyl-propyl)acetamide

> <PUBCHEM_IUPAC_INCHI>
InChI=1S/C22H28N6O2/c1-22(2,30)13-26-19(29)11-18-27-17-12-25-21-16(8-10-24-21)20(17)28(18)15-5-3-14(4-6-15)7-9-23/h8,10,12,14-15,30H,3-7,11,13H2,1-2H3,(H,24,25)(H,26,29)

> <PUBCHEM_IUPAC_INCHIKEY>
NJKMSBSVJSQUBU-UHFFFAOYSA-N

> <PUBCHEM_XLOGP3_AA>
1.1

> <PUBCHEM_EXACT_MASS>
408.22737416

> <PUBCHEM_MOLECULAR_FORMULA>
C22H28N6O2

> <PUBCHEM_MOLECULAR_WEIGHT>
408.5

> <PUBCHEM_OPENEYE_CAN_SMILES>
CC(C)(CNC(=O)CC1=NC2=CN=C3C(=C2N1C4CCC(CC4)CC#N)C=CN3)O

> <PUBCHEM_OPENEYE_ISO_SMILES>
CC(C)(CNC(=O)CC1=NC2=CN=C3C(=C2N1C4CCC(CC4)CC#N)C=CN3)O

> <PUBCHEM_CACTVS_TPSA>
120

> <PUBCHEM_MONOISOTOPIC_WEIGHT>
408.22737416

> <PUBCHEM_TOTAL_CHARGE>
0

> <PUBCHEM_HEAVY_ATOM_COUNT>
30

> <PUBCHEM_ATOM_DEF_STEREO_COUNT>
0

> <PUBCHEM_ATOM_UDEF_STEREO_COUNT>
0

> <PUBCHEM_BOND_DEF_STEREO_COUNT>
0

> <PUBCHEM_BOND_UDEF_STEREO_COUNT>
0

> <PUBCHEM_ISOTOPIC_ATOM_COUNT>
0

> <PUBCHEM_COMPONENT_COUNT>
1

> <PUBCHEM_CACTVS_TAUTO_COUNT>
-1

> <PUBCHEM_COORDINATE_TYPE>
1
5
255

> <PUBCHEM_BONDANNOTATIONS>
16  18  8
16  19  8
18  23  8
19  21  8
19  24  8
24  26  8
3  16  8
3  17  8
4  17  8
4  18  8
5  21  8
5  23  8
6  21  8
6  26  8

$$$$
71301378
  -OEChem-11282412102D

 77 81  0     1  0  0  0  0  0999 V2000
   10.1042    0.0000    0.0000 Cl  0  0  0  0  0  0  0  0  0  0  0  0
   11.8477    0.9799    0.0000 Cl  0  0  0  0  0  0  0  0  0  0  0  0
    5.9239   16.7534    0.0000 S   0  0  0  0  0  0  0  0  0  0  0  0
    8.3839    1.0200    0.0000 F   0  0  0  0  0  0  0  0  0  0  0  0
    4.9265    6.0544    0.0000 O   0  0  0  0  0  0  0  0  0  0  0  0
    4.9265    4.0544    0.0000 O   0  0  0  0  0  0  0  0  0  0  0  0
    5.9239   17.7534    0.0000 O   0  0  0  0  0  0  0  0  0  0  0  0
    6.9239   16.7534    0.0000 O   0  0  0  0  0  0  0  0  0  0  0  0
    4.9239   16.7534    0.0000 O   0  0  0  0  0  0  0  0  0  0  0  0
    1.4030    9.0888    0.0000 N   0  0  0  0  0  0  0  0  0  0  0  0
    8.4186    6.0891    0.0000 N   0  0  0  0  0  0  0  0  0  0  0  0
    9.3246    4.5336    0.0000 N   0  0  0  0  0  0  0  0  0  0  0  0
    8.4070    3.0198    0.0000 N   0  0  0  0  0  0  0  0  0  0  0  0
    2.9778    8.7569    0.0000 C   0  0  1  0  0  0  0  0  0  0  0  0
    2.4778    7.8908    0.0000 C   0  0  2  0  0  0  0  0  0  0  0  0
    4.0605    7.5544    0.0000 C   0  0  0  0  0  0  0  0  0  0  0  0
    3.9560    8.5489    0.0000 C   0  0  0  0  0  0  0  0  0  0  0  0
    3.1470    7.1477    0.0000 C   0  0  0  0  0  0  0  0  0  0  0  0
    2.3108    9.4939    0.0000 C   0  0  0  0  0  0  0  0  0  0  0  0
    1.5060    8.1000    0.0000 C   0  0  0  0  0  0  0  0  0  0  0  0
    4.9265    7.0544    0.0000 C   0  0  0  0  0  0  0  0  0  0  0  0
    0.5369    9.5888    0.0000 C   0  0  0  0  0  0  0  0  0  0  0  0
    5.7926    5.5544    0.0000 C   0  0  0  0  0  0  0  0  0  0  0  0
    5.7926    4.5544    0.0000 C   0  0  0  0  0  0  0  0  0  0  0  0
    6.6586    6.0544    0.0000 C   0  0  0  0  0  0  0  0  0  0  0  0
    7.5246    5.5544    0.0000 C   0  0  0  0  0  0  0  0  0  0  0  0
    6.6586    4.0544    0.0000 C   0  0  0  0  0  0  0  0  0  0  0  0
    7.5246    4.5544    0.0000 C   0  0  0  0  0  0  0  0  0  0  0  0
    8.4186    4.0198    0.0000 C   0  0  0  0  0  0  0  0  0  0  0  0
    4.9265    3.0544    0.0000 C   0  0  0  0  0  0  0  0  0  0  0  0
    9.3246    5.5752    0.0000 C   0  0  0  0  0  0  0  0  0  0  0  0
    9.2672    2.5098    0.0000 C   0  0  0  0  0  0  0  0  0  0  0  0
    9.2556    1.5099    0.0000 C   0  0  0  0  0  0  0  0  0  0  0  0
   10.1389    2.9998    0.0000 C   0  0  0  0  0  0  0  0  0  0  0  0
   10.1158    0.9999    0.0000 C   0  0  0  0  0  0  0  0  0  0  0  0
   10.9991    2.4898    0.0000 C   0  0  0  0  0  0  0  0  0  0  0  0
   10.9875    1.4899    0.0000 C   0  0  0  0  0  0  0  0  0  0  0  0
    5.9239   15.7534    0.0000 C   0  0  0  0  0  0  0  0  0  0  0  0
    5.9239   13.7534    0.0000 C   0  0  0  0  0  0  0  0  0  0  0  0
    5.0578   15.2534    0.0000 C   0  0  0  0  0  0  0  0  0  0  0  0
    6.7899   15.2534    0.0000 C   0  0  0  0  0  0  0  0  0  0  0  0
    5.0578   14.2534    0.0000 C   0  0  0  0  0  0  0  0  0  0  0  0
    6.7899   14.2534    0.0000 C   0  0  0  0  0  0  0  0  0  0  0  0
    5.9239   12.7534    0.0000 C   0  0  0  0  0  0  0  0  0  0  0  0
    3.4019    9.4935    0.0000 H   0  0  0  0  0  0  0  0  0  0  0  0
    2.0519    7.1553    0.0000 H   0  0  0  0  0  0  0  0  0  0  0  0
    4.5805    7.8921    0.0000 H   0  0  0  0  0  0  0  0  0  0  0  0
    4.5760    8.5489    0.0000 H   0  0  0  0  0  0  0  0  0  0  0  0
    4.0208    9.1656    0.0000 H   0  0  0  0  0  0  0  0  0  0  0  0
    2.6454    6.7833    0.0000 H   0  0  0  0  0  0  0  0  0  0  0  0
    3.4570    6.6108    0.0000 H   0  0  0  0  0  0  0  0  0  0  0  0
    2.8116    9.8593    0.0000 H   0  0  0  0  0  0  0  0  0  0  0  0
    2.0000   10.0304    0.0000 H   0  0  0  0  0  0  0  0  0  0  0  0
    0.8860    8.1009    0.0000 H   0  0  0  0  0  0  0  0  0  0  0  0
    1.4400    7.4836    0.0000 H   0  0  0  0  0  0  0  0  0  0  0  0
    5.5371    6.9468    0.0000 H   0  0  0  0  0  0  0  0  0  0  0  0
    5.1386    7.6370    0.0000 H   0  0  0  0  0  0  0  0  0  0  0  0
    0.8469   10.1257    0.0000 H   0  0  0  0  0  0  0  0  0  0  0  0
    0.0000    9.8988    0.0000 H   0  0  0  0  0  0  0  0  0  0  0  0
    0.2269    9.0518    0.0000 H   0  0  0  0  0  0  0  0  0  0  0  0
    6.6586    6.6744    0.0000 H   0  0  0  0  0  0  0  0  0  0  0  0
    6.6586    3.4344    0.0000 H   0  0  0  0  0  0  0  0  0  0  0  0
    4.3065    3.0544    0.0000 H   0  0  0  0  0  0  0  0  0  0  0  0
    4.9265    2.4344    0.0000 H   0  0  0  0  0  0  0  0  0  0  0  0
    5.5465    3.0544    0.0000 H   0  0  0  0  0  0  0  0  0  0  0  0
    9.8604    5.8873    0.0000 H   0  0  0  0  0  0  0  0  0  0  0  0
    7.8665    2.7161    0.0000 H   0  0  0  0  0  0  0  0  0  0  0  0
   10.1461    3.6198    0.0000 H   0  0  0  0  0  0  0  0  0  0  0  0
   11.5396    2.7936    0.0000 H   0  0  0  0  0  0  0  0  0  0  0  0
    4.5209   15.5634    0.0000 H   0  0  0  0  0  0  0  0  0  0  0  0
    7.3268   15.5634    0.0000 H   0  0  0  0  0  0  0  0  0  0  0  0
    4.5209   13.9434    0.0000 H   0  0  0  0  0  0  0  0  0  0  0  0
    7.3268   13.9434    0.0000 H   0  0  0  0  0  0  0  0  0  0  0  0
    5.3039   12.7534    0.0000 H   0  0  0  0  0  0  0  0  0  0  0  0
    5.9239   12.1334    0.0000 H   0  0  0  0  0  0  0  0  0  0  0  0
    6.5439   12.7534    0.0000 H   0  0  0  0  0  0  0  0  0  0  0  0
    6.4608   18.0634    0.0000 H   0  0  0  0  0  0  0  0  0  0  0  0
  1 35  1  0  0  0  0
  2 37  1  0  0  0  0
  3  7  1  0  0  0  0
  3  8  2  0  0  0  0
  3  9  2  0  0  0  0
  3 38  1  0  0  0  0
  4 33  1  0  0  0  0
  5 21  1  0  0  0  0
  5 23  1  0  0  0  0
  6 24  1  0  0  0  0
  6 30  1  0  0  0  0
  7 77  1  0  0  0  0
 10 19  1  0  0  0  0
 10 20  1  0  0  0  0
 10 22  1  0  0  0  0
 11 26  1  0  0  0  0
 11 31  2  0  0  0  0
 12 29  2  0  0  0  0
 12 31  1  0  0  0  0
 13 29  1  0  0  0  0
 13 32  1  0  0  0  0
 13 67  1  0  0  0  0
 14 15  1  0  0  0  0
 14 17  1  0  0  0  0
 14 19  1  0  0  0  0
 14 45  1  1  0  0  0
 15 18  1  0  0  0  0
 15 20  1  0  0  0  0
 15 46  1  1  0  0  0
 16 17  1  0  0  0  0
 16 18  1  0  0  0  0
 16 21  1  0  0  0  0
 16 47  1  0  0  0  0
 17 48  1  0  0  0  0
 17 49  1  0  0  0  0
 18 50  1  0  0  0  0
 18 51  1  0  0  0  0
 19 52  1  0  0  0  0
 19 53  1  0  0  0  0
 20 54  1  0  0  0  0
 20 55  1  0  0  0  0
 21 56  1  0  0  0  0
 21 57  1  0  0  0  0
 22 58  1  0  0  0  0
 22 59  1  0  0  0  0
 22 60  1  0  0  0  0
 23 24  2  0  0  0  0
 23 25  1  0  0  0  0
 24 27  1  0  0  0  0
 25 26  2  0  0  0  0
 25 61  1  0  0  0  0
 26 28  1  0  0  0  0
 27 28  2  0  0  0  0
 27 62  1  0  0  0  0
 28 29  1  0  0  0  0
 30 63  1  0  0  0  0
 30 64  1  0  0  0  0
 30 65  1  0  0  0  0
 31 66  1  0  0  0  0
 32 33  2  0  0  0  0
 32 34  1  0  0  0  0
 33 35  1  0  0  0  0
 34 36  2  0  0  0  0
 34 68  1  0  0  0  0
 35 37  2  0  0  0  0
 36 37  1  0  0  0  0
 36 69  1  0  0  0  0
 38 40  2  0  0  0  0
 38 41  1  0  0  0  0
 39 42  2  0  0  0  0
 39 43  1  0  0  0  0
 39 44  1  0  0  0  0
 40 42  1  0  0  0  0
 40 70  1  0  0  0  0
 41 43  2  0  0  0  0
 41 71  1  0  0  0  0
 42 72  1  0  0  0  0
 43 73  1  0  0  0  0
 44 74  1  0  0  0  0
 44 75  1  0  0  0  0
 44 76  1  0  0  0  0
M  END
> <PUBCHEM_COMPOUND_CID>
71301378

> <PUBCHEM_COMPOUND_CANONICALIZED>
1

> <PUBCHEM_CACTVS_COMPLEXITY>
858

> <PUBCHEM_CACTVS_HBOND_ACCEPTOR>
10

> <PUBCHEM_CACTVS_HBOND_DONOR>
2

> <PUBCHEM_CACTVS_ROTATABLE_BOND>
7

> <PUBCHEM_CACTVS_SUBSKEYS>
AAADcfB7uQBGAAAAAAAAAAAAAAAAAeIAAAA8YMEAAAAWAACx9AAAHwYQCAAADQ7h3i439/fIFIKgAyZjZHDCiGkxJ6AJ2ng+7piNLuLF+9uGPCru0BvK6Cew0BMOsEBBAgICQARggIIEBASACQAACAAAAA==

> <PUBCHEM_IUPAC_OPENEYE_NAME>
7-[[(3aS,6aR)-2-methyl-3,3a,4,5,6,6a-hexahydro-1H-cyclopenta[c]pyrrol-5-yl]methoxy]-N-(3,4-dichloro-2-fluoro-phenyl)-6-methoxy-quinazolin-4-amine;4-methylbenzenesulfonic acid

> <PUBCHEM_IUPAC_CAS_NAME>
7-[[(3aS,6aR)-2-methyl-3,3a,4,5,6,6a-hexahydro-1H-cyclopenta[c]pyrrol-5-yl]methoxy]-N-(3,4-dichloro-2-fluorophenyl)-6-methoxy-4-quinazolinamine;4-methylbenzenesulfonic acid

> <PUBCHEM_IUPAC_NAME_MARKUP>
7-[[(3<I>a</I><I>S</I>,6<I>a</I><I>R</I>)-2-methyl-3,3<I>a</I>,4,5,6,6<I>a</I>-hexahydro-1<I>H</I>-cyclopenta[c]pyrrol-5-yl]methoxy]-<I>N</I>-(3,4-dichloro-2-fluorophenyl)-6-methoxyquinazolin-4-amine;4-methylbenzenesulfonic acid

> <PUBCHEM_IUPAC_NAME>
7-[[(3aS,6aR)-2-methyl-3,3a,4,5,6,6a-hexahydro-1H-cyclopenta[c]pyrrol-5-yl]methoxy]-N-(3,4-dichloro-2-fluorophenyl)-6-methoxyquinazolin-4-amine;4-methylbenzenesulfonic acid

> <PUBCHEM_IUPAC_SYSTEMATIC_NAME>
7-[[(3aS,6aR)-2-methyl-3,3a,4,5,6,6a-hexahydro-1H-cyclopenta[c]pyrrol-5-yl]methoxy]-N-[3,4-bis(chloranyl)-2-fluoranyl-phenyl]-6-methoxy-quinazolin-4-amine;4-methylbenzenesulfonic acid

> <PUBCHEM_IUPAC_TRADITIONAL_NAME>
[7-[[(3aS,6aR)-2-methyl-3,3a,4,5,6,6a-hexahydro-1H-cyclopenta[c]pyrrol-5-yl]methoxy]-6-methoxy-quinazolin-4-yl]-(3,4-dichloro-2-fluoro-phenyl)amine;tosylic acid

> <PUBCHEM_IUPAC_INCHI>
InChI=1S/C24H25Cl2FN4O2.C7H8O3S/c1-31-9-14-5-13(6-15(14)10-31)11-33-21-8-19-16(7-20(21)32-2)24(29-12-28-19)30-18-4-3-17(25)22(26)23(18)27;1-6-2-4-7(5-3-6)11(8,9)10/h3-4,7-8,12-15H,5-6,9-11H2,1-2H3,(H,28,29,30);2-5H,1H3,(H,8,9,10)/t13?,14-,15+;

> <PUBCHEM_IUPAC_INCHIKEY>
GQLLAIBEWDUUBQ-XZPOUAKSSA-N

> <PUBCHEM_EXACT_MASS>
662.1532749

> <PUBCHEM_MOLECULAR_FORMULA>
C31H33Cl2FN4O5S

> <PUBCHEM_MOLECULAR_WEIGHT>
663.6

> <PUBCHEM_OPENEYE_CAN_SMILES>
CC1=CC=C(C=C1)S(=O)(=O)O.CN1CC2CC(CC2C1)COC3=C(C=C4C(=C3)N=CN=C4NC5=C(C(=C(C=C5)Cl)Cl)F)OC

> <PUBCHEM_OPENEYE_ISO_SMILES>
CC1=CC=C(C=C1)S(=O)(=O)O.CN1C[C@H]2CC(C[C@H]2C1)COC3=C(C=C4C(=C3)N=CN=C4NC5=C(C(=C(C=C5)Cl)Cl)F)OC

> <PUBCHEM_CACTVS_TPSA>
122

> <PUBCHEM_MONOISOTOPIC_WEIGHT>
662.1532749

> <PUBCHEM_TOTAL_CHARGE>
0

> <PUBCHEM_HEAVY_ATOM_COUNT>
44

> <PUBCHEM_ATOM_DEF_STEREO_COUNT>
2

> <PUBCHEM_ATOM_UDEF_STEREO_COUNT>
0

> <PUBCHEM_BOND_DEF_STEREO_COUNT>
0

> <PUBCHEM_BOND_UDEF_STEREO_COUNT>
0

> <PUBCHEM_ISOTOPIC_ATOM_COUNT>
0

> <PUBCHEM_COMPONENT_COUNT>
2

> <PUBCHEM_CACTVS_TAUTO_COUNT>
-1

> <PUBCHEM_COORDINATE_TYPE>
1
5
255

> <PUBCHEM_BONDANNOTATIONS>
11  26  8
11  31  8
12  29  8
12  31  8
14  45  5
15  46  5
23  24  8
23  25  8
24  27  8
25  26  8
26  28  8
27  28  8
28  29  8
32  33  8
32  34  8
33  35  8
34  36  8
35  37  8
36  37  8
38  40  8
38  41  8
39  42  8
39  43  8
40  42  8
41  43  8

$$$$
156413
  -OEChem-11282412102D

 63 64  0     0  0  0  0  0  0999 V2000
   12.2636    0.0000    0.0000 Cl  0  0  0  0  0  0  0  0  0  0  0  0
    0.0000    6.5203    0.0000 Cl  0  0  0  0  0  0  0  0  0  0  0  0
    8.0092   13.0406    0.0000 Cl  0  0  0  0  0  0  0  0  0  0  0  0
   14.0071    0.9799    0.0000 F   0  0  0  0  0  0  0  0  0  0  0  0
    3.6218   10.0544    0.0000 O   0  0  0  0  0  0  0  0  0  0  0  0
    7.0859    6.0544    0.0000 O   0  0  0  0  0  0  0  0  0  0  0  0
    6.2199    5.5544    0.0000 O   0  0  0  0  0  0  0  0  0  0  0  0
    5.3539    9.0544    0.0000 N   0  0  0  0  0  0  0  0  0  0  0  0
    7.0859    4.0544    0.0000 N   0  0  0  0  0  0  0  0  0  0  0  0
   10.5780    6.0891    0.0000 N   0  0  0  0  0  0  0  0  0  0  0  0
   10.5664    3.0198    0.0000 N   0  0  0  0  0  0  0  0  0  0  0  0
   11.4840    4.5336    0.0000 N   0  0  0  0  0  0  0  0  0  0  0  0
    6.2199    8.5544    0.0000 C   0  0  0  0  0  0  0  0  0  0  0  0
    4.4879    8.5544    0.0000 C   0  0  0  0  0  0  0  0  0  0  0  0
    5.3539   10.0544    0.0000 C   0  0  0  0  0  0  0  0  0  0  0  0
    6.2199    7.5544    0.0000 C   0  0  0  0  0  0  0  0  0  0  0  0
    3.6218    9.0544    0.0000 C   0  0  0  0  0  0  0  0  0  0  0  0
    4.4879   10.5544    0.0000 C   0  0  0  0  0  0  0  0  0  0  0  0
    7.0859    7.0544    0.0000 C   0  0  0  0  0  0  0  0  0  0  0  0
    7.9520    5.5544    0.0000 C   0  0  0  0  0  0  0  0  0  0  0  0
    7.9520    4.5544    0.0000 C   0  0  0  0  0  0  0  0  0  0  0  0
    9.6840    4.5544    0.0000 C   0  0  0  0  0  0  0  0  0  0  0  0
    8.8180    6.0544    0.0000 C   0  0  0  0  0  0  0  0  0  0  0  0
    9.6840    5.5544    0.0000 C   0  0  0  0  0  0  0  0  0  0  0  0
    8.8180    4.0544    0.0000 C   0  0  0  0  0  0  0  0  0  0  0  0
   10.5780    4.0198    0.0000 C   0  0  0  0  0  0  0  0  0  0  0  0
   11.4840    5.5752    0.0000 C   0  0  0  0  0  0  0  0  0  0  0  0
   11.4266    2.5098    0.0000 C   0  0  0  0  0  0  0  0  0  0  0  0
    6.2199    4.5544    0.0000 C   0  0  0  0  0  0  0  0  0  0  0  0
   11.4150    1.5099    0.0000 C   0  0  0  0  0  0  0  0  0  0  0  0
   12.2983    2.9998    0.0000 C   0  0  0  0  0  0  0  0  0  0  0  0
   12.2752    0.9999    0.0000 C   0  0  0  0  0  0  0  0  0  0  0  0
   13.1585    2.4898    0.0000 C   0  0  0  0  0  0  0  0  0  0  0  0
    5.3539    4.0544    0.0000 C   0  0  0  0  0  0  0  0  0  0  0  0
   13.1469    1.4899    0.0000 C   0  0  0  0  0  0  0  0  0  0  0  0
    4.4879    4.5544    0.0000 C   0  0  0  0  0  0  0  0  0  0  0  0
    6.8305    8.4468    0.0000 H   0  0  0  0  0  0  0  0  0  0  0  0
    6.4320    9.1370    0.0000 H   0  0  0  0  0  0  0  0  0  0  0  0
    4.0893    8.0795    0.0000 H   0  0  0  0  0  0  0  0  0  0  0  0
    4.8864    8.0795    0.0000 H   0  0  0  0  0  0  0  0  0  0  0  0
    5.9645    9.9468    0.0000 H   0  0  0  0  0  0  0  0  0  0  0  0
    5.5659   10.6370    0.0000 H   0  0  0  0  0  0  0  0  0  0  0  0
    5.6093    7.6621    0.0000 H   0  0  0  0  0  0  0  0  0  0  0  0
    6.0079    6.9718    0.0000 H   0  0  0  0  0  0  0  0  0  0  0  0
    3.0112    9.1621    0.0000 H   0  0  0  0  0  0  0  0  0  0  0  0
    3.4098    8.4718    0.0000 H   0  0  0  0  0  0  0  0  0  0  0  0
    4.8864   11.0294    0.0000 H   0  0  0  0  0  0  0  0  0  0  0  0
    4.0893   11.0294    0.0000 H   0  0  0  0  0  0  0  0  0  0  0  0
    7.6965    6.9468    0.0000 H   0  0  0  0  0  0  0  0  0  0  0  0
    7.2980    7.6370    0.0000 H   0  0  0  0  0  0  0  0  0  0  0  0
    8.8180    6.6744    0.0000 H   0  0  0  0  0  0  0  0  0  0  0  0
    8.8180    3.4344    0.0000 H   0  0  0  0  0  0  0  0  0  0  0  0
    7.0859    3.4344    0.0000 H   0  0  0  0  0  0  0  0  0  0  0  0
   10.0259    2.7161    0.0000 H   0  0  0  0  0  0  0  0  0  0  0  0
   12.0198    5.8873    0.0000 H   0  0  0  0  0  0  0  0  0  0  0  0
   10.8745    1.2061    0.0000 H   0  0  0  0  0  0  0  0  0  0  0  0
   12.3055    3.6198    0.0000 H   0  0  0  0  0  0  0  0  0  0  0  0
   13.6990    2.7936    0.0000 H   0  0  0  0  0  0  0  0  0  0  0  0
    5.3539    3.4344    0.0000 H   0  0  0  0  0  0  0  0  0  0  0  0
    4.4879    5.1744    0.0000 H   0  0  0  0  0  0  0  0  0  0  0  0
    3.9509    4.2444    0.0000 H   0  0  0  0  0  0  0  0  0  0  0  0
    1.0000    6.5203    0.0000 H   0  0  0  0  0  0  0  0  0  0  0  0
    9.0092   13.0406    0.0000 H   0  0  0  0  0  0  0  0  0  0  0  0
  1 32  1  0  0  0  0
  2 62  1  0  0  0  0
  3 63  1  0  0  0  0
  4 35  1  0  0  0  0
  5 17  1  0  0  0  0
  5 18  1  0  0  0  0
  6 19  1  0  0  0  0
  6 20  1  0  0  0  0
  7 29  2  0  0  0  0
  8 13  1  0  0  0  0
  8 14  1  0  0  0  0
  8 15  1  0  0  0  0
  9 21  1  0  0  0  0
  9 29  1  0  0  0  0
  9 53  1  0  0  0  0
 10 24  1  0  0  0  0
 10 27  2  0  0  0  0
 11 26  1  0  0  0  0
 11 28  1  0  0  0  0
 11 54  1  0  0  0  0
 12 26  2  0  0  0  0
 12 27  1  0  0  0  0
 13 16  1  0  0  0  0
 13 37  1  0  0  0  0
 13 38  1  0  0  0  0
 14 17  1  0  0  0  0
 14 39  1  0  0  0  0
 14 40  1  0  0  0  0
 15 18  1  0  0  0  0
 15 41  1  0  0  0  0
 15 42  1  0  0  0  0
 16 19  1  0  0  0  0
 16 43  1  0  0  0  0
 16 44  1  0  0  0  0
 17 45  1  0  0  0  0
 17 46  1  0  0  0  0
 18 47  1  0  0  0  0
 18 48  1  0  0  0  0
 19 49  1  0  0  0  0
 19 50  1  0  0  0  0
 20 21  2  0  0  0  0
 20 23  1  0  0  0  0
 21 25  1  0  0  0  0
 22 24  1  0  0  0  0
 22 25  2  0  0  0  0
 22 26  1  0  0  0  0
 23 24  2  0  0  0  0
 23 51  1  0  0  0  0
 25 52  1  0  0  0  0
 27 55  1  0  0  0  0
 28 30  2  0  0  0  0
 28 31  1  0  0  0  0
 29 34  1  0  0  0  0
 30 32  1  0  0  0  0
 30 56  1  0  0  0  0
 31 33  2  0  0  0  0
 31 57  1  0  0  0  0
 32 35  2  0  0  0  0
 33 35  1  0  0  0  0
 33 58  1  0  0  0  0
 34 36  2  0  0  0  0
 34 59  1  0  0  0  0
 36 60  1  0  0  0  0
 36 61  1  0  0  0  0
M  END
> <PUBCHEM_COMPOUND_CID>
156413

> <PUBCHEM_COMPOUND_CANONICALIZED>
1

> <PUBCHEM_CACTVS_COMPLEXITY>
671

> <PUBCHEM_CACTVS_HBOND_ACCEPTOR>
8

> <PUBCHEM_CACTVS_HBOND_DONOR>
4

> <PUBCHEM_CACTVS_ROTATABLE_BOND>
9

> <PUBCHEM_CACTVS_SUBSKEYS>
AAADceB7sQAGAAAAAAAAAAAAAAAAAAAAAAA8eIEAAAAAAACx9AAAHwIQAAAADA7hni419vfIFACoAydzdACCiCkxJ6AJ2CA/btiOLuLF+9uHPCju1BvY6KeQ0AMOIACAQgICEABAAQCEBAQgAAAAAAAAAA==

> <PUBCHEM_IUPAC_OPENEYE_NAME>
N-[4-(3-chloro-4-fluoro-anilino)-7-(3-morpholinopropoxy)quinazolin-6-yl]prop-2-enamide;dihydrochloride

> <PUBCHEM_IUPAC_CAS_NAME>
N-[4-(3-chloro-4-fluoroanilino)-7-[3-(4-morpholinyl)propoxy]-6-quinazolinyl]-2-propenamide;dihydrochloride

> <PUBCHEM_IUPAC_NAME_MARKUP>
<I>N</I>-[4-(3-chloro-4-fluoroanilino)-7-(3-morpholin-4-ylpropoxy)quinazolin-6-yl]prop-2-enamide;dihydrochloride

> <PUBCHEM_IUPAC_NAME>
N-[4-(3-chloro-4-fluoroanilino)-7-(3-morpholin-4-ylpropoxy)quinazolin-6-yl]prop-2-enamide;dihydrochloride

> <PUBCHEM_IUPAC_SYSTEMATIC_NAME>
N-[4-[(3-chloranyl-4-fluoranyl-phenyl)amino]-7-(3-morpholin-4-ylpropoxy)quinazolin-6-yl]prop-2-enamide;dihydrochloride

> <PUBCHEM_IUPAC_TRADITIONAL_NAME>
N-[4-(3-chloro-4-fluoro-anilino)-7-(3-morpholinopropoxy)quinazolin-6-yl]acrylamide;dihydrochloride

> <PUBCHEM_IUPAC_INCHI>
InChI=1S/C24H25ClFN5O3.2ClH/c1-2-23(32)30-21-13-17-20(14-22(21)34-9-3-6-31-7-10-33-11-8-31)27-15-28-24(17)29-16-4-5-19(26)18(25)12-16;;/h2,4-5,12-15H,1,3,6-11H2,(H,30,32)(H,27,28,29);2*1H

> <PUBCHEM_IUPAC_INCHIKEY>
JZZFDCXSFTVOJY-UHFFFAOYSA-N

> <PUBCHEM_EXACT_MASS>
557.116351

> <PUBCHEM_MOLECULAR_FORMULA>
C24H27Cl3FN5O3

> <PUBCHEM_MOLECULAR_WEIGHT>
558.9

> <PUBCHEM_OPENEYE_CAN_SMILES>
C=CC(=O)NC1=C(C=C2C(=C1)C(=NC=N2)NC3=CC(=C(C=C3)F)Cl)OCCCN4CCOCC4.Cl.Cl

> <PUBCHEM_OPENEYE_ISO_SMILES>
C=CC(=O)NC1=C(C=C2C(=C1)C(=NC=N2)NC3=CC(=C(C=C3)F)Cl)OCCCN4CCOCC4.Cl.Cl

> <PUBCHEM_CACTVS_TPSA>
88.6

> <PUBCHEM_MONOISOTOPIC_WEIGHT>
557.116351

> <PUBCHEM_TOTAL_CHARGE>
0

> <PUBCHEM_HEAVY_ATOM_COUNT>
36

> <PUBCHEM_ATOM_DEF_STEREO_COUNT>
0

> <PUBCHEM_ATOM_UDEF_STEREO_COUNT>
0

> <PUBCHEM_BOND_DEF_STEREO_COUNT>
0

> <PUBCHEM_BOND_UDEF_STEREO_COUNT>
0

> <PUBCHEM_ISOTOPIC_ATOM_COUNT>
0

> <PUBCHEM_COMPONENT_COUNT>
3

> <PUBCHEM_CACTVS_TAUTO_COUNT>
-1

> <PUBCHEM_COORDINATE_TYPE>
1
5
255

> <PUBCHEM_BONDANNOTATIONS>
10  24  8
10  27  8
12  26  8
12  27  8
20  21  8
20  23  8
21  25  8
22  24  8
22  25  8
22  26  8
23  24  8
28  30  8
28  31  8
30  32  8
31  33  8
32  35  8
33  35  8

$$$$
16662431
  -OEChem-11282412102D

 57 60  0     0  0  0  0  0  0999 V2000
   14.5199    0.3346    0.0000 F   0  0  0  0  0  0  0  0  0  0  0  0
    7.1962    2.2786    0.0000 O   0  0  0  0  0  0  0  0  0  0  0  0
    9.7084   -1.7014    0.0000 O   0  0  0  0  0  0  0  0  0  0  0  0
    6.3301    0.7786    0.0000 N   0  0  0  0  0  0  0  0  0  0  0  0
    9.0084   -0.5261    0.0000 N   0  0  0  0  0  0  0  0  0  0  0  0
    3.7320    1.2786    0.0000 N   0  0  0  0  0  0  0  0  0  0  0  0
   11.4239   -2.1623    0.0000 N   0  0  0  0  0  0  0  0  0  0  0  0
    6.3301   -0.2214    0.0000 C   0  0  0  0  0  0  0  0  0  0  0  0
    7.1962   -0.7214    0.0000 C   0  0  0  0  0  0  0  0  0  0  0  0
    8.0622   -0.2214    0.0000 C   0  0  0  0  0  0  0  0  0  0  0  0
    8.0622    0.7786    0.0000 C   0  0  0  0  0  0  0  0  0  0  0  0
    5.4641    1.2786    0.0000 C   0  0  0  0  0  0  0  0  0  0  0  0
    7.1962    1.2786    0.0000 C   0  0  0  0  0  0  0  0  0  0  0  0
    9.0084    1.0834    0.0000 C   0  0  0  0  0  0  0  0  0  0  0  0
    4.5981    0.7786    0.0000 C   0  0  0  0  0  0  0  0  0  0  0  0
    9.5920    0.2786    0.0000 C   0  0  0  0  0  0  0  0  0  0  0  0
    9.3191    2.0339    0.0000 C   0  0  0  0  0  0  0  0  0  0  0  0
   10.5920    0.2786    0.0000 C   0  0  0  0  0  0  0  0  0  0  0  0
    2.8660    0.7786    0.0000 C   0  0  0  0  0  0  0  0  0  0  0  0
    3.7320    2.2786    0.0000 C   0  0  0  0  0  0  0  0  0  0  0  0
   11.0920   -0.5874    0.0000 C   0  0  0  0  0  0  0  0  0  0  0  0
   12.0807   -0.6904    0.0000 C   0  0  0  0  0  0  0  0  0  0  0  0
    2.0000    1.2786    0.0000 C   0  0  0  0  0  0  0  0  0  0  0  0
    2.8660    2.7786    0.0000 C   0  0  0  0  0  0  0  0  0  0  0  0
   12.2869   -1.6690    0.0000 C   0  0  0  0  0  0  0  0  0  0  0  0
   10.6869   -1.4952    0.0000 C   0  0  0  0  0  0  0  0  0  0  0  0
   12.8250   -0.0226    0.0000 C   0  0  0  0  0  0  0  0  0  0  0  0
   13.2375   -1.9796    0.0000 C   0  0  0  0  0  0  0  0  0  0  0  0
   13.7756   -0.3333    0.0000 C   0  0  0  0  0  0  0  0  0  0  0  0
   13.9818   -1.3118    0.0000 C   0  0  0  0  0  0  0  0  0  0  0  0
    5.7196   -0.1137    0.0000 H   0  0  0  0  0  0  0  0  0  0  0  0
    6.1181   -0.8040    0.0000 H   0  0  0  0  0  0  0  0  0  0  0  0
    6.7976   -1.1963    0.0000 H   0  0  0  0  0  0  0  0  0  0  0  0
    7.5947   -1.1963    0.0000 H   0  0  0  0  0  0  0  0  0  0  0  0
    5.8626    1.7536    0.0000 H   0  0  0  0  0  0  0  0  0  0  0  0
    5.0656    1.7536    0.0000 H   0  0  0  0  0  0  0  0  0  0  0  0
    4.1996    0.3037    0.0000 H   0  0  0  0  0  0  0  0  0  0  0  0
    4.9966    0.3037    0.0000 H   0  0  0  0  0  0  0  0  0  0  0  0
    9.2010   -1.1154    0.0000 H   0  0  0  0  0  0  0  0  0  0  0  0
    9.9084    1.8413    0.0000 H   0  0  0  0  0  0  0  0  0  0  0  0
    9.5117    2.6232    0.0000 H   0  0  0  0  0  0  0  0  0  0  0  0
    8.7297    2.2265    0.0000 H   0  0  0  0  0  0  0  0  0  0  0  0
   10.9020    0.8156    0.0000 H   0  0  0  0  0  0  0  0  0  0  0  0
    2.4675    0.3037    0.0000 H   0  0  0  0  0  0  0  0  0  0  0  0
    3.2646    0.3037    0.0000 H   0  0  0  0  0  0  0  0  0  0  0  0
    4.3426    2.1710    0.0000 H   0  0  0  0  0  0  0  0  0  0  0  0
    3.9441    2.8612    0.0000 H   0  0  0  0  0  0  0  0  0  0  0  0
    2.3100    1.8156    0.0000 H   0  0  0  0  0  0  0  0  0  0  0  0
    1.4631    1.5886    0.0000 H   0  0  0  0  0  0  0  0  0  0  0  0
    1.6900    0.7417    0.0000 H   0  0  0  0  0  0  0  0  0  0  0  0
    3.1760    3.3156    0.0000 H   0  0  0  0  0  0  0  0  0  0  0  0
    2.3291    3.0886    0.0000 H   0  0  0  0  0  0  0  0  0  0  0  0
    2.5560    2.2417    0.0000 H   0  0  0  0  0  0  0  0  0  0  0  0
   11.3570   -2.7786    0.0000 H   0  0  0  0  0  0  0  0  0  0  0  0
   12.6972    0.5841    0.0000 H   0  0  0  0  0  0  0  0  0  0  0  0
   13.3653   -2.5863    0.0000 H   0  0  0  0  0  0  0  0  0  0  0  0
   14.5711   -1.5044    0.0000 H   0  0  0  0  0  0  0  0  0  0  0  0
  1 29  1  0  0  0  0
  2 13  2  0  0  0  0
  3 26  2  0  0  0  0
  4  8  1  0  0  0  0
  4 12  1  0  0  0  0
  4 13  1  0  0  0  0
  5 10  1  0  0  0  0
  5 16  1  0  0  0  0
  5 39  1  0  0  0  0
  6 15  1  0  0  0  0
  6 19  1  0  0  0  0
  6 20  1  0  0  0  0
  7 25  1  0  0  0  0
  7 26  1  0  0  0  0
  7 54  1  0  0  0  0
  8  9  1  0  0  0  0
  8 31  1  0  0  0  0
  8 32  1  0  0  0  0
  9 10  1  0  0  0  0
  9 33  1  0  0  0  0
  9 34  1  0  0  0  0
 10 11  2  0  0  0  0
 11 13  1  0  0  0  0
 11 14  1  0  0  0  0
 12 15  1  0  0  0  0
 12 35  1  0  0  0  0
 12 36  1  0  0  0  0
 14 16  2  0  0  0  0
 14 17  1  0  0  0  0
 15 37  1  0  0  0  0
 15 38  1  0  0  0  0
 16 18  1  0  0  0  0
 17 40  1  0  0  0  0
 17 41  1  0  0  0  0
 17 42  1  0  0  0  0
 18 21  2  0  0  0  0
 18 43  1  0  0  0  0
 19 23  1  0  0  0  0
 19 44  1  0  0  0  0
 19 45  1  0  0  0  0
 20 24  1  0  0  0  0
 20 46  1  0  0  0  0
 20 47  1  0  0  0  0
 21 22  1  0  0  0  0
 21 26  1  0  0  0  0
 22 25  2  0  0  0  0
 22 27  1  0  0  0  0
 23 48  1  0  0  0  0
 23 49  1  0  0  0  0
 23 50  1  0  0  0  0
 24 51  1  0  0  0  0
 24 52  1  0  0  0  0
 24 53  1  0  0  0  0
 25 28  1  0  0  0  0
 27 29  2  0  0  0  0
 27 55  1  0  0  0  0
 28 30  2  0  0  0  0
 28 56  1  0  0  0  0
 29 30  1  0  0  0  0
 30 57  1  0  0  0  0
M  END
> <PUBCHEM_COMPOUND_CID>
16662431

> <PUBCHEM_COMPOUND_CANONICALIZED>
1

> <PUBCHEM_CACTVS_COMPLEXITY>
695

> <PUBCHEM_CACTVS_HBOND_ACCEPTOR>
4

> <PUBCHEM_CACTVS_HBOND_DONOR>
2

> <PUBCHEM_CACTVS_ROTATABLE_BOND>
6

> <PUBCHEM_CACTVS_SUBSKEYS>
AAADceB7sQAAAAAAAAAAAAAAAAAAAWLAAAA8QAAAAAAAAFgBwAAAHwAQAAAADAjBngwywJPJkACoAyVyVACCgCAlAiAImSE4ZNgIYHrA1ZGUIYhglgDIyccciYCOgAAAAAACAAAAAAAAAAQAAAAAAAAAAA==

> <PUBCHEM_IUPAC_OPENEYE_NAME>
5-[2-(diethylamino)ethyl]-2-[(Z)-(5-fluoro-2-oxo-indolin-3-ylidene)methyl]-3-methyl-6,7-dihydro-1H-pyrrolo[3,2-c]pyridin-4-one

> <PUBCHEM_IUPAC_CAS_NAME>
5-[2-(diethylamino)ethyl]-2-[(Z)-(5-fluoro-2-oxo-1H-indol-3-ylidene)methyl]-3-methyl-6,7-dihydro-1H-pyrrolo[3,2-c]pyridin-4-one

> <PUBCHEM_IUPAC_NAME_MARKUP>
5-[2-(diethylamino)ethyl]-2-[(<I>Z</I>)-(5-fluoro-2-oxo-1<I>H</I>-indol-3-ylidene)methyl]-3-methyl-6,7-dihydro-1<I>H</I>-pyrrolo[3,2-c]pyridin-4-one

> <PUBCHEM_IUPAC_NAME>
5-[2-(diethylamino)ethyl]-2-[(Z)-(5-fluoro-2-oxo-1H-indol-3-ylidene)methyl]-3-methyl-6,7-dihydro-1H-pyrrolo[3,2-c]pyridin-4-one

> <PUBCHEM_IUPAC_SYSTEMATIC_NAME>
5-[2-(diethylamino)ethyl]-2-[(Z)-(5-fluoranyl-2-oxidanylidene-1H-indol-3-ylidene)methyl]-3-methyl-6,7-dihydro-1H-pyrrolo[3,2-c]pyridin-4-one

> <PUBCHEM_IUPAC_TRADITIONAL_NAME>
5-[2-(diethylamino)ethyl]-2-[(Z)-(5-fluoro-2-keto-indolin-3-ylidene)methyl]-3-methyl-6,7-dihydro-1H-pyrrolo[3,2-c]pyridin-4-one

> <PUBCHEM_IUPAC_INCHI>
InChI=1S/C23H27FN4O2/c1-4-27(5-2)10-11-28-9-8-19-21(23(28)30)14(3)20(25-19)13-17-16-12-15(24)6-7-18(16)26-22(17)29/h6-7,12-13,25H,4-5,8-11H2,1-3H3,(H,26,29)/b17-13-

> <PUBCHEM_IUPAC_INCHIKEY>
GKEYKDOLBLYGRB-LGMDPLHJSA-N

> <PUBCHEM_XLOGP3_AA>
2.5

> <PUBCHEM_EXACT_MASS>
410.21180428

> <PUBCHEM_MOLECULAR_FORMULA>
C23H27FN4O2

> <PUBCHEM_MOLECULAR_WEIGHT>
410.5

> <PUBCHEM_OPENEYE_CAN_SMILES>
CCN(CC)CCN1CCC2=C(C1=O)C(=C(N2)C=C3C4=C(C=CC(=C4)F)NC3=O)C

> <PUBCHEM_OPENEYE_ISO_SMILES>
CCN(CC)CCN1CCC2=C(C1=O)C(=C(N2)/C=C\3/C4=C(C=CC(=C4)F)NC3=O)C

> <PUBCHEM_CACTVS_TPSA>
68.4

> <PUBCHEM_MONOISOTOPIC_WEIGHT>
410.21180428

> <PUBCHEM_TOTAL_CHARGE>
0

> <PUBCHEM_HEAVY_ATOM_COUNT>
30

> <PUBCHEM_ATOM_DEF_STEREO_COUNT>
0

> <PUBCHEM_ATOM_UDEF_STEREO_COUNT>
0

> <PUBCHEM_BOND_DEF_STEREO_COUNT>
1

> <PUBCHEM_BOND_UDEF_STEREO_COUNT>
0

> <PUBCHEM_ISOTOPIC_ATOM_COUNT>
0

> <PUBCHEM_COMPONENT_COUNT>
1

> <PUBCHEM_CACTVS_TAUTO_COUNT>
-1

> <PUBCHEM_COORDINATE_TYPE>
1
5
255

> <PUBCHEM_BONDANNOTATIONS>
10  11  8
11  14  8
14  16  8
22  25  8
22  27  8
25  28  8
27  29  8
28  30  8
29  30  8
5  10  8
5  16  8

$$$$
25024769
  -OEChem-11282412102D

 75 78  0     0  0  0  0  0  0999 V2000
    5.7022   12.1145    0.0000 S   0  0  0  0  0  0  0  0  0  0  0  0
   12.3447    6.5299    0.0000 S   0  0  0  0  0  0  0  0  0  0  0  0
    5.8067    6.1200    0.0000 O   0  0  0  0  0  0  0  0  0  0  0  0
   13.2107    7.0299    0.0000 O   0  0  0  0  0  0  0  0  0  0  0  0
   11.8447    7.3959    0.0000 O   0  0  0  0  0  0  0  0  0  0  0  0
   12.8447    5.6638    0.0000 O   0  0  0  0  0  0  0  0  0  0  0  0
    1.4766    3.6200    0.0000 N   0  0  0  0  0  0  0  0  0  0  0  0
    1.4766    1.6200    0.0000 N   0  0  0  0  0  0  0  0  0  0  0  0
    4.9407    7.6200    0.0000 N   0  0  0  0  0  0  0  0  0  0  0  0
    6.6728   10.6200    0.0000 N   0  0  0  0  0  0  0  0  0  0  0  0
    4.8932   10.7133    0.0000 N   0  0  0  0  0  0  0  0  0  0  0  0
    1.6472   12.0564    0.0000 N   0  0  0  0  0  0  0  0  0  0  0  0
    0.6106    3.1200    0.0000 C   0  0  0  0  0  0  0  0  0  0  0  0
    2.3426    3.1200    0.0000 C   0  0  0  0  0  0  0  0  0  0  0  0
    0.6106    2.1200    0.0000 C   0  0  0  0  0  0  0  0  0  0  0  0
    2.3426    2.1200    0.0000 C   0  0  0  0  0  0  0  0  0  0  0  0
    1.4766    4.6200    0.0000 C   0  0  0  0  0  0  0  0  0  0  0  0
    1.4766    0.6200    0.0000 C   0  0  0  0  0  0  0  0  0  0  0  0
    2.3426    5.1200    0.0000 C   0  0  0  0  0  0  0  0  0  0  0  0
    3.2087    4.6200    0.0000 C   0  0  0  0  0  0  0  0  0  0  0  0
    2.3426    6.1200    0.0000 C   0  0  0  0  0  0  0  0  0  0  0  0
    4.0747    5.1200    0.0000 C   0  0  0  0  0  0  0  0  0  0  0  0
    3.2087    6.6200    0.0000 C   0  0  0  0  0  0  0  0  0  0  0  0
    4.0747    6.1200    0.0000 C   0  0  0  0  0  0  0  0  0  0  0  0
    4.9407    6.6200    0.0000 C   0  0  0  0  0  0  0  0  0  0  0  0
    5.8067    8.1200    0.0000 C   0  0  0  0  0  0  0  0  0  0  0  0
    5.8067    9.1200    0.0000 C   0  0  0  0  0  0  0  0  0  0  0  0
    6.6728    9.6200    0.0000 C   0  0  0  0  0  0  0  0  0  0  0  0
    7.5388    9.1200    0.0000 C   0  0  0  0  0  0  0  0  0  0  0  0
    6.6728    7.6200    0.0000 C   0  0  0  0  0  0  0  0  0  0  0  0
    7.5388    8.1200    0.0000 C   0  0  0  0  0  0  0  0  0  0  0  0
    8.4048    9.6200    0.0000 C   0  0  0  0  0  0  0  0  0  0  0  0
    5.8067   11.1200    0.0000 C   0  0  0  0  0  0  0  0  0  0  0  0
    4.2241   11.4564    0.0000 C   0  0  0  0  0  0  0  0  0  0  0  0
    4.7241   12.3224    0.0000 C   0  0  0  0  0  0  0  0  0  0  0  0
    3.2295   11.3519    0.0000 C   0  0  0  0  0  0  0  0  0  0  0  0
    2.8228   10.4383    0.0000 C   0  0  0  0  0  0  0  0  0  0  0  0
    2.6418   12.1609    0.0000 C   0  0  0  0  0  0  0  0  0  0  0  0
    1.8283   10.3338    0.0000 C   0  0  0  0  0  0  0  0  0  0  0  0
    1.2405   11.1428    0.0000 C   0  0  0  0  0  0  0  0  0  0  0  0
   11.4787    6.0299    0.0000 C   0  0  0  0  0  0  0  0  0  0  0  0
    0.3985    3.7026    0.0000 H   0  0  0  0  0  0  0  0  0  0  0  0
    0.0000    3.0123    0.0000 H   0  0  0  0  0  0  0  0  0  0  0  0
    2.9532    3.0123    0.0000 H   0  0  0  0  0  0  0  0  0  0  0  0
    2.5547    3.7026    0.0000 H   0  0  0  0  0  0  0  0  0  0  0  0
    0.0000    2.2277    0.0000 H   0  0  0  0  0  0  0  0  0  0  0  0
    0.3985    1.5374    0.0000 H   0  0  0  0  0  0  0  0  0  0  0  0
    2.5547    1.5374    0.0000 H   0  0  0  0  0  0  0  0  0  0  0  0
    2.9532    2.2277    0.0000 H   0  0  0  0  0  0  0  0  0  0  0  0
    1.2646    5.2026    0.0000 H   0  0  0  0  0  0  0  0  0  0  0  0
    0.8660    4.5123    0.0000 H   0  0  0  0  0  0  0  0  0  0  0  0
    0.8566    0.6200    0.0000 H   0  0  0  0  0  0  0  0  0  0  0  0
    1.4766    0.0000    0.0000 H   0  0  0  0  0  0  0  0  0  0  0  0
    2.0966    0.6200    0.0000 H   0  0  0  0  0  0  0  0  0  0  0  0
    3.2087    4.0000    0.0000 H   0  0  0  0  0  0  0  0  0  0  0  0
    1.8057    6.4300    0.0000 H   0  0  0  0  0  0  0  0  0  0  0  0
    4.6116    4.8100    0.0000 H   0  0  0  0  0  0  0  0  0  0  0  0
    3.2087    7.2400    0.0000 H   0  0  0  0  0  0  0  0  0  0  0  0
    4.4038    7.9300    0.0000 H   0  0  0  0  0  0  0  0  0  0  0  0
    5.2698    9.4300    0.0000 H   0  0  0  0  0  0  0  0  0  0  0  0
    6.6728    7.0000    0.0000 H   0  0  0  0  0  0  0  0  0  0  0  0
    8.0757    7.8100    0.0000 H   0  0  0  0  0  0  0  0  0  0  0  0
    7.2097   10.9300    0.0000 H   0  0  0  0  0  0  0  0  0  0  0  0
    8.7148    9.0831    0.0000 H   0  0  0  0  0  0  0  0  0  0  0  0
    8.9418    9.9300    0.0000 H   0  0  0  0  0  0  0  0  0  0  0  0
    8.0948   10.1569    0.0000 H   0  0  0  0  0  0  0  0  0  0  0  0
    4.4719   12.8888    0.0000 H   0  0  0  0  0  0  0  0  0  0  0  0
    3.1872    9.9367    0.0000 H   0  0  0  0  0  0  0  0  0  0  0  0
    2.8939   12.7273    0.0000 H   0  0  0  0  0  0  0  0  0  0  0  0
    1.5761    9.7674    0.0000 H   0  0  0  0  0  0  0  0  0  0  0  0
    0.6239   11.0780    0.0000 H   0  0  0  0  0  0  0  0  0  0  0  0
   11.1687    6.5668    0.0000 H   0  0  0  0  0  0  0  0  0  0  0  0
   10.9417    5.7199    0.0000 H   0  0  0  0  0  0  0  0  0  0  0  0
   11.7887    5.4929    0.0000 H   0  0  0  0  0  0  0  0  0  0  0  0
   13.7477    6.7199    0.0000 H   0  0  0  0  0  0  0  0  0  0  0  0
  1 33  1  0  0  0  0
  1 35  1  0  0  0  0
  2  4  1  0  0  0  0
  2  5  2  0  0  0  0
  2  6  2  0  0  0  0
  2 41  1  0  0  0  0
  3 25  2  0  0  0  0
  4 75  1  0  0  0  0
  7 13  1  0  0  0  0
  7 14  1  0  0  0  0
  7 17  1  0  0  0  0
  8 15  1  0  0  0  0
  8 16  1  0  0  0  0
  8 18  1  0  0  0  0
  9 25  1  0  0  0  0
  9 26  1  0  0  0  0
  9 59  1  0  0  0  0
 10 28  1  0  0  0  0
 10 33  1  0  0  0  0
 10 63  1  0  0  0  0
 11 33  2  0  0  0  0
 11 34  1  0  0  0  0
 12 38  1  0  0  0  0
 12 40  2  0  0  0  0
 13 15  1  0  0  0  0
 13 42  1  0  0  0  0
 13 43  1  0  0  0  0
 14 16  1  0  0  0  0
 14 44  1  0  0  0  0
 14 45  1  0  0  0  0
 15 46  1  0  0  0  0
 15 47  1  0  0  0  0
 16 48  1  0  0  0  0
 16 49  1  0  0  0  0
 17 19  1  0  0  0  0
 17 50  1  0  0  0  0
 17 51  1  0  0  0  0
 18 52  1  0  0  0  0
 18 53  1  0  0  0  0
 18 54  1  0  0  0  0
 19 20  2  0  0  0  0
 19 21  1  0  0  0  0
 20 22  1  0  0  0  0
 20 55  1  0  0  0  0
 21 23  2  0  0  0  0
 21 56  1  0  0  0  0
 22 24  2  0  0  0  0
 22 57  1  0  0  0  0
 23 24  1  0  0  0  0
 23 58  1  0  0  0  0
 24 25  1  0  0  0  0
 26 27  2  0  0  0  0
 26 30  1  0  0  0  0
 27 28  1  0  0  0  0
 27 60  1  0  0  0  0
 28 29  2  0  0  0  0
 29 31  1  0  0  0  0
 29 32  1  0  0  0  0
 30 31  2  0  0  0  0
 30 61  1  0  0  0  0
 31 62  1  0  0  0  0
 32 64  1  0  0  0  0
 32 65  1  0  0  0  0
 32 66  1  0  0  0  0
 34 35  2  0  0  0  0
 34 36  1  0  0  0  0
 35 67  1  0  0  0  0
 36 37  1  0  0  0  0
 36 38  2  0  0  0  0
 37 39  2  0  0  0  0
 37 68  1  0  0  0  0
 38 69  1  0  0  0  0
 39 40  1  0  0  0  0
 39 70  1  0  0  0  0
 40 71  1  0  0  0  0
 41 72  1  0  0  0  0
 41 73  1  0  0  0  0
 41 74  1  0  0  0  0
M  END
> <PUBCHEM_COMPOUND_CID>
25024769

> <PUBCHEM_COMPOUND_CANONICALIZED>
1

> <PUBCHEM_CACTVS_COMPLEXITY>
788

> <PUBCHEM_CACTVS_HBOND_ACCEPTOR>
10

> <PUBCHEM_CACTVS_HBOND_DONOR>
3

> <PUBCHEM_CACTVS_ROTATABLE_BOND>
7

> <PUBCHEM_CACTVS_SUBSKEYS>
AAADcfB7uABgAAAAAAAAAAAAAAAAAWAAAAA8eIEAAAAAAAAB9AAAHgQQCAAADAjF3gS/0ZPIEIqsAzV3dHCC8Kl1CjkJ2DU4ZNiIYPLg3dGUIQholALIyacYiACOSAAAAAQCAACQAAAACAQAAAAAAAAAAA==

> <PUBCHEM_IUPAC_OPENEYE_NAME>
methanesulfonic acid;4-[(4-methylpiperazin-1-yl)methyl]-N-[4-methyl-3-[[4-(3-pyridyl)thiazol-2-yl]amino]phenyl]benzamide

> <PUBCHEM_IUPAC_CAS_NAME>
methanesulfonic acid;4-[(4-methyl-1-piperazinyl)methyl]-N-[4-methyl-3-[[4-(3-pyridinyl)-2-thiazolyl]amino]phenyl]benzamide

> <PUBCHEM_IUPAC_NAME_MARKUP>
methanesulfonic acid;4-[(4-methylpiperazin-1-yl)methyl]-<I>N</I>-[4-methyl-3-[(4-pyridin-3-yl-1,3-thiazol-2-yl)amino]phenyl]benzamide

> <PUBCHEM_IUPAC_NAME>
methanesulfonic acid;4-[(4-methylpiperazin-1-yl)methyl]-N-[4-methyl-3-[(4-pyridin-3-yl-1,3-thiazol-2-yl)amino]phenyl]benzamide

> <PUBCHEM_IUPAC_SYSTEMATIC_NAME>
methanesulfonic acid;4-[(4-methylpiperazin-1-yl)methyl]-N-[4-methyl-3-[(4-pyridin-3-yl-1,3-thiazol-2-yl)amino]phenyl]benzamide

> <PUBCHEM_IUPAC_TRADITIONAL_NAME>
mesylic acid;4-[(4-methylpiperazino)methyl]-N-[4-methyl-3-[[4-(3-pyridyl)thiazol-2-yl]amino]phenyl]benzamide

> <PUBCHEM_IUPAC_INCHI>
InChI=1S/C28H30N6OS.CH4O3S/c1-20-5-10-24(16-25(20)31-28-32-26(19-36-28)23-4-3-11-29-17-23)30-27(35)22-8-6-21(7-9-22)18-34-14-12-33(2)13-15-34;1-5(2,3)4/h3-11,16-17,19H,12-15,18H2,1-2H3,(H,30,35)(H,31,32);1H3,(H,2,3,4)

> <PUBCHEM_IUPAC_INCHIKEY>
TXCWBWKVIZGWEQ-UHFFFAOYSA-N

> <PUBCHEM_EXACT_MASS>
594.20829593

> <PUBCHEM_MOLECULAR_FORMULA>
C29H34N6O4S2

> <PUBCHEM_MOLECULAR_WEIGHT>
594.8

> <PUBCHEM_OPENEYE_CAN_SMILES>
CC1=C(C=C(C=C1)NC(=O)C2=CC=C(C=C2)CN3CCN(CC3)C)NC4=NC(=CS4)C5=CN=CC=C5.CS(=O)(=O)O

> <PUBCHEM_OPENEYE_ISO_SMILES>
CC1=C(C=C(C=C1)NC(=O)C2=CC=C(C=C2)CN3CCN(CC3)C)NC4=NC(=CS4)C5=CN=CC=C5.CS(=O)(=O)O

> <PUBCHEM_CACTVS_TPSA>
164

> <PUBCHEM_MONOISOTOPIC_WEIGHT>
594.20829593

> <PUBCHEM_TOTAL_CHARGE>
0

> <PUBCHEM_HEAVY_ATOM_COUNT>
41

> <PUBCHEM_ATOM_DEF_STEREO_COUNT>
0

> <PUBCHEM_ATOM_UDEF_STEREO_COUNT>
0

> <PUBCHEM_BOND_DEF_STEREO_COUNT>
0

> <PUBCHEM_BOND_UDEF_STEREO_COUNT>
0

> <PUBCHEM_ISOTOPIC_ATOM_COUNT>
0

> <PUBCHEM_COMPONENT_COUNT>
2

> <PUBCHEM_CACTVS_TAUTO_COUNT>
4

> <PUBCHEM_COORDINATE_TYPE>
1
5
255

> <PUBCHEM_BONDANNOTATIONS>
1  33  8
1  35  8
11  33  8
11  34  8
12  38  8
12  40  8
19  20  8
19  21  8
20  22  8
21  23  8
22  24  8
23  24  8
26  27  8
26  30  8
27  28  8
28  29  8
29  31  8
30  31  8
34  35  8
36  37  8
36  38  8
37  39  8
39  40  8

$$$$
44225877
  -OEChem-11282412102D

 89 93  0     1  0  0  0  0  0999 V2000
   14.0506    0.8243    0.0000 Cl  0  0  0  0  0  0  0  0  0  0  0  0
    1.4030    9.3729    0.0000 S   0  0  0  0  0  0  0  0  0  0  0  0
   12.2676   14.1259    0.0000 S   0  0  0  0  0  0  0  0  0  0  0  0
   18.4442    2.1803    0.0000 S   0  0  0  0  0  0  0  0  0  0  0  0
    7.9024    6.3732    0.0000 O   0  0  0  0  0  0  0  0  0  0  0  0
   15.7941    1.8042    0.0000 O   0  0  0  0  0  0  0  0  0  0  0  0
    1.4030   10.3729    0.0000 O   0  0  0  0  0  0  0  0  0  0  0  0
   12.2676   15.1259    0.0000 O   0  0  0  0  0  0  0  0  0  0  0  0
    2.4030    9.3729    0.0000 O   0  0  0  0  0  0  0  0  0  0  0  0
    0.4030    9.3729    0.0000 O   0  0  0  0  0  0  0  0  0  0  0  0
   13.2676   14.1259    0.0000 O   0  0  0  0  0  0  0  0  0  0  0  0
   11.2676   14.1259    0.0000 O   0  0  0  0  0  0  0  0  0  0  0  0
    7.0934    4.9720    0.0000 N   0  0  0  0  0  0  0  0  0  0  0  0
    8.8729    4.8787    0.0000 N   0  0  0  0  0  0  0  0  0  0  0  0
   12.3534    3.8441    0.0000 N   0  0  0  0  0  0  0  0  0  0  0  0
   12.3649    6.9134    0.0000 N   0  0  0  0  0  0  0  0  0  0  0  0
   13.2710    5.3579    0.0000 N   0  0  0  0  0  0  0  0  0  0  0  0
   17.6191    0.7885    0.0000 N   0  0  0  0  0  0  0  0  0  0  0  0
    6.4242    5.7151    0.0000 C   0  0  1  0  0  0  0  0  0  0  0  0
    6.9242    6.5811    0.0000 C   0  0  0  0  0  0  0  0  0  0  0  0
    8.0069    5.3787    0.0000 C   0  0  0  0  0  0  0  0  0  0  0  0
    5.4297    5.6106    0.0000 C   0  0  0  0  0  0  0  0  0  0  0  0
    9.7390    5.3787    0.0000 C   0  0  0  0  0  0  0  0  0  0  0  0
   11.4710    5.3787    0.0000 C   0  0  0  0  0  0  0  0  0  0  0  0
   10.6050    4.8787    0.0000 C   0  0  0  0  0  0  0  0  0  0  0  0
   11.4710    6.3787    0.0000 C   0  0  0  0  0  0  0  0  0  0  0  0
    9.7390    6.3787    0.0000 C   0  0  0  0  0  0  0  0  0  0  0  0
   12.3649    4.8440    0.0000 C   0  0  0  0  0  0  0  0  0  0  0  0
   10.6050    6.8787    0.0000 C   0  0  0  0  0  0  0  0  0  0  0  0
   13.2136    3.3341    0.0000 C   0  0  0  0  0  0  0  0  0  0  0  0
   13.2710    6.3995    0.0000 C   0  0  0  0  0  0  0  0  0  0  0  0
   13.2020    2.3342    0.0000 C   0  0  0  0  0  0  0  0  0  0  0  0
   14.0853    3.8241    0.0000 C   0  0  0  0  0  0  0  0  0  0  0  0
   14.9339    2.3142    0.0000 C   0  0  0  0  0  0  0  0  0  0  0  0
   14.0622    1.8242    0.0000 C   0  0  0  0  0  0  0  0  0  0  0  0
   14.9455    3.3141    0.0000 C   0  0  0  0  0  0  0  0  0  0  0  0
   16.6659    2.2941    0.0000 C   0  0  0  0  0  0  0  0  0  0  0  0
    1.4030    8.3729    0.0000 C   0  0  0  0  0  0  0  0  0  0  0  0
   12.2676   13.1259    0.0000 C   0  0  0  0  0  0  0  0  0  0  0  0
    1.4030    6.3729    0.0000 C   0  0  0  0  0  0  0  0  0  0  0  0
   12.2676   11.1259    0.0000 C   0  0  0  0  0  0  0  0  0  0  0  0
    0.5369    7.8729    0.0000 C   0  0  0  0  0  0  0  0  0  0  0  0
   11.4016   12.6259    0.0000 C   0  0  0  0  0  0  0  0  0  0  0  0
    2.2690    7.8729    0.0000 C   0  0  0  0  0  0  0  0  0  0  0  0
   13.1336   12.6259    0.0000 C   0  0  0  0  0  0  0  0  0  0  0  0
    0.5369    6.8729    0.0000 C   0  0  0  0  0  0  0  0  0  0  0  0
   11.4016   11.6259    0.0000 C   0  0  0  0  0  0  0  0  0  0  0  0
    2.2690    6.8729    0.0000 C   0  0  0  0  0  0  0  0  0  0  0  0
   13.1336   11.6259    0.0000 C   0  0  0  0  0  0  0  0  0  0  0  0
   17.5261    1.7842    0.0000 C   0  0  0  0  0  0  0  0  0  0  0  0
    1.4030    5.3729    0.0000 C   0  0  0  0  0  0  0  0  0  0  0  0
   12.2676   10.1259    0.0000 C   0  0  0  0  0  0  0  0  0  0  0  0
   19.1047    1.4295    0.0000 C   0  0  0  0  0  0  0  0  0  0  0  0
   18.5948    0.5693    0.0000 C   0  0  0  0  0  0  0  0  0  0  0  0
    6.2020    5.1363    0.0000 H   0  0  0  0  0  0  0  0  0  0  0  0
    7.1158    7.1708    0.0000 H   0  0  0  0  0  0  0  0  0  0  0  0
    6.3578    6.8333    0.0000 H   0  0  0  0  0  0  0  0  0  0  0  0
    5.3649    6.2272    0.0000 H   0  0  0  0  0  0  0  0  0  0  0  0
    4.8131    5.5458    0.0000 H   0  0  0  0  0  0  0  0  0  0  0  0
    5.4945    4.9940    0.0000 H   0  0  0  0  0  0  0  0  0  0  0  0
    8.8729    4.2587    0.0000 H   0  0  0  0  0  0  0  0  0  0  0  0
   10.6050    4.2587    0.0000 H   0  0  0  0  0  0  0  0  0  0  0  0
    9.2020    6.6887    0.0000 H   0  0  0  0  0  0  0  0  0  0  0  0
   10.6050    7.4987    0.0000 H   0  0  0  0  0  0  0  0  0  0  0  0
   11.8129    3.5403    0.0000 H   0  0  0  0  0  0  0  0  0  0  0  0
   13.8067    6.7116    0.0000 H   0  0  0  0  0  0  0  0  0  0  0  0
   12.6615    2.0304    0.0000 H   0  0  0  0  0  0  0  0  0  0  0  0
   14.0925    4.4440    0.0000 H   0  0  0  0  0  0  0  0  0  0  0  0
   15.4860    3.6179    0.0000 H   0  0  0  0  0  0  0  0  0  0  0  0
   17.0699    2.7644    0.0000 H   0  0  0  0  0  0  0  0  0  0  0  0
   16.2729    2.7736    0.0000 H   0  0  0  0  0  0  0  0  0  0  0  0
    0.0000    8.1829    0.0000 H   0  0  0  0  0  0  0  0  0  0  0  0
   10.8646   12.9359    0.0000 H   0  0  0  0  0  0  0  0  0  0  0  0
    2.8059    8.1829    0.0000 H   0  0  0  0  0  0  0  0  0  0  0  0
   13.6705   12.9359    0.0000 H   0  0  0  0  0  0  0  0  0  0  0  0
    0.0000    6.5629    0.0000 H   0  0  0  0  0  0  0  0  0  0  0  0
   10.8646   11.3159    0.0000 H   0  0  0  0  0  0  0  0  0  0  0  0
    2.8059    6.5629    0.0000 H   0  0  0  0  0  0  0  0  0  0  0  0
   13.6705   11.3159    0.0000 H   0  0  0  0  0  0  0  0  0  0  0  0
    0.7830    5.3729    0.0000 H   0  0  0  0  0  0  0  0  0  0  0  0
    1.4030    4.7529    0.0000 H   0  0  0  0  0  0  0  0  0  0  0  0
    2.0230    5.3729    0.0000 H   0  0  0  0  0  0  0  0  0  0  0  0
   11.6476   10.1259    0.0000 H   0  0  0  0  0  0  0  0  0  0  0  0
   12.2676    9.5059    0.0000 H   0  0  0  0  0  0  0  0  0  0  0  0
   12.8876   10.1259    0.0000 H   0  0  0  0  0  0  0  0  0  0  0  0
   19.7221    1.4871    0.0000 H   0  0  0  0  0  0  0  0  0  0  0  0
   18.8404    0.0000    0.0000 H   0  0  0  0  0  0  0  0  0  0  0  0
    1.9399   10.6829    0.0000 H   0  0  0  0  0  0  0  0  0  0  0  0
   12.8045   15.4359    0.0000 H   0  0  0  0  0  0  0  0  0  0  0  0
  1 35  1  0  0  0  0
  2  7  1  0  0  0  0
  2  9  2  0  0  0  0
  2 10  2  0  0  0  0
  2 38  1  0  0  0  0
  3  8  1  0  0  0  0
  3 11  2  0  0  0  0
  3 12  2  0  0  0  0
  3 39  1  0  0  0  0
  4 50  1  0  0  0  0
  4 53  1  0  0  0  0
  5 20  1  0  0  0  0
  5 21  1  0  0  0  0
  6 34  1  0  0  0  0
  6 37  1  0  0  0  0
  7 88  1  0  0  0  0
  8 89  1  0  0  0  0
 13 19  1  0  0  0  0
 13 21  2  0  0  0  0
 14 21  1  0  0  0  0
 14 23  1  0  0  0  0
 14 61  1  0  0  0  0
 15 28  1  0  0  0  0
 15 30  1  0  0  0  0
 15 65  1  0  0  0  0
 16 26  1  0  0  0  0
 16 31  2  0  0  0  0
 17 28  2  0  0  0  0
 17 31  1  0  0  0  0
 18 50  2  0  0  0  0
 18 54  1  0  0  0  0
 19 20  1  0  0  0  0
 19 22  1  6  0  0  0
 19 55  1  0  0  0  0
 20 56  1  0  0  0  0
 20 57  1  0  0  0  0
 22 58  1  0  0  0  0
 22 59  1  0  0  0  0
 22 60  1  0  0  0  0
 23 25  2  0  0  0  0
 23 27  1  0  0  0  0
 24 25  1  0  0  0  0
 24 26  2  0  0  0  0
 24 28  1  0  0  0  0
 25 62  1  0  0  0  0
 26 29  1  0  0  0  0
 27 29  2  0  0  0  0
 27 63  1  0  0  0  0
 29 64  1  0  0  0  0
 30 32  2  0  0  0  0
 30 33  1  0  0  0  0
 31 66  1  0  0  0  0
 32 35  1  0  0  0  0
 32 67  1  0  0  0  0
 33 36  2  0  0  0  0
 33 68  1  0  0  0  0
 34 35  2  0  0  0  0
 34 36  1  0  0  0  0
 36 69  1  0  0  0  0
 37 50  1  0  0  0  0
 37 70  1  0  0  0  0
 37 71  1  0  0  0  0
 38 42  2  0  0  0  0
 38 44  1  0  0  0  0
 39 43  2  0  0  0  0
 39 45  1  0  0  0  0
 40 46  2  0  0  0  0
 40 48  1  0  0  0  0
 40 51  1  0  0  0  0
 41 47  2  0  0  0  0
 41 49  1  0  0  0  0
 41 52  1  0  0  0  0
 42 46  1  0  0  0  0
 42 72  1  0  0  0  0
 43 47  1  0  0  0  0
 43 73  1  0  0  0  0
 44 48  2  0  0  0  0
 44 74  1  0  0  0  0
 45 49  2  0  0  0  0
 45 75  1  0  0  0  0
 46 76  1  0  0  0  0
 47 77  1  0  0  0  0
 48 78  1  0  0  0  0
 49 79  1  0  0  0  0
 51 80  1  0  0  0  0
 51 81  1  0  0  0  0
 51 82  1  0  0  0  0
 52 83  1  0  0  0  0
 52 84  1  0  0  0  0
 52 85  1  0  0  0  0
 53 54  2  0  0  0  0
 53 86  1  0  0  0  0
 54 87  1  0  0  0  0
M  END
> <PUBCHEM_COMPOUND_CID>
44225877

> <PUBCHEM_COMPOUND_CANONICALIZED>
1

> <PUBCHEM_CACTVS_COMPLEXITY>
866

> <PUBCHEM_CACTVS_HBOND_ACCEPTOR>
14

> <PUBCHEM_CACTVS_HBOND_DONOR>
4

> <PUBCHEM_CACTVS_ROTATABLE_BOND>
9

> <PUBCHEM_CACTVS_SUBSKEYS>
AAADcfB/vABkAAAAAAAAAAAAAAAAAWIAAAA8YMGCAAAAAACx/AAAHgYQCAAADC7l3ia/9/bIFIqkAzZnZHTC+OlxL/hJ2Dw+b5mOLuPF+9uPPCjs0BP46CewwAAOEECAQAICCAAggQCABAQQAAAAAAAAAA==

> <PUBCHEM_IUPAC_OPENEYE_NAME>
N4-[3-chloro-4-(thiazol-2-ylmethoxy)phenyl]-N6-[(4R)-4-methyl-4,5-dihydrooxazol-2-yl]quinazoline-4,6-diamine;4-methylbenzenesulfonic acid

> <PUBCHEM_IUPAC_CAS_NAME>
N4-[3-chloro-4-(2-thiazolylmethoxy)phenyl]-N6-[(4R)-4-methyl-4,5-dihydrooxazol-2-yl]quinazoline-4,6-diamine;4-methylbenzenesulfonic acid

> <PUBCHEM_IUPAC_NAME_MARKUP>
4-<I>N</I>-[3-chloro-4-(1,3-thiazol-2-ylmethoxy)phenyl]-6-<I>N</I>-[(4<I>R</I>)-4-methyl-4,5-dihydro-1,3-oxazol-2-yl]quinazoline-4,6-diamine;4-methylbenzenesulfonic acid

> <PUBCHEM_IUPAC_NAME>
4-N-[3-chloro-4-(1,3-thiazol-2-ylmethoxy)phenyl]-6-N-[(4R)-4-methyl-4,5-dihydro-1,3-oxazol-2-yl]quinazoline-4,6-diamine;4-methylbenzenesulfonic acid

> <PUBCHEM_IUPAC_SYSTEMATIC_NAME>
N4-[3-chloranyl-4-(1,3-thiazol-2-ylmethoxy)phenyl]-N6-[(4R)-4-methyl-4,5-dihydro-1,3-oxazol-2-yl]quinazoline-4,6-diamine;4-methylbenzenesulfonic acid

> <PUBCHEM_IUPAC_TRADITIONAL_NAME>
[4-[3-chloro-4-(thiazol-2-ylmethoxy)anilino]quinazolin-6-yl]-[(4R)-4-methyl-2-oxazolin-2-yl]amine;tosylic acid

> <PUBCHEM_IUPAC_INCHI>
InChI=1S/C22H19ClN6O2S.2C7H8O3S/c1-13-10-31-22(27-13)29-14-2-4-18-16(8-14)21(26-12-25-18)28-15-3-5-19(17(23)9-15)30-11-20-24-6-7-32-20;2*1-6-2-4-7(5-3-6)11(8,9)10/h2-9,12-13H,10-11H2,1H3,(H,27,29)(H,25,26,28);2*2-5H,1H3,(H,8,9,10)/t13-;;/m1../s1

> <PUBCHEM_IUPAC_INCHIKEY>
QSUPQMGDXOHVLK-FFXKMJQXSA-N

> <PUBCHEM_EXACT_MASS>
810.1367033

> <PUBCHEM_MOLECULAR_FORMULA>
C36H35ClN6O8S3

> <PUBCHEM_MOLECULAR_WEIGHT>
811.4

> <PUBCHEM_OPENEYE_CAN_SMILES>
CC1COC(=N1)NC2=CC3=C(C=C2)N=CN=C3NC4=CC(=C(C=C4)OCC5=NC=CS5)Cl.CC1=CC=C(C=C1)S(=O)(=O)O.CC1=CC=C(C=C1)S(=O)(=O)O

> <PUBCHEM_OPENEYE_ISO_SMILES>
C[C@@H]1COC(=N1)NC2=CC3=C(C=C2)N=CN=C3NC4=CC(=C(C=C4)OCC5=NC=CS5)Cl.CC1=CC=C(C=C1)S(=O)(=O)O.CC1=CC=C(C=C1)S(=O)(=O)O

> <PUBCHEM_CACTVS_TPSA>
247

> <PUBCHEM_MONOISOTOPIC_WEIGHT>
810.1367033

> <PUBCHEM_TOTAL_CHARGE>
0

> <PUBCHEM_HEAVY_ATOM_COUNT>
54

> <PUBCHEM_ATOM_DEF_STEREO_COUNT>
1

> <PUBCHEM_ATOM_UDEF_STEREO_COUNT>
0

> <PUBCHEM_BOND_DEF_STEREO_COUNT>
0

> <PUBCHEM_BOND_UDEF_STEREO_COUNT>
0

> <PUBCHEM_ISOTOPIC_ATOM_COUNT>
0

> <PUBCHEM_COMPONENT_COUNT>
3

> <PUBCHEM_CACTVS_TAUTO_COUNT>
-1

> <PUBCHEM_COORDINATE_TYPE>
1
5
255

> <PUBCHEM_BONDANNOTATIONS>
16  26  8
16  31  8
17  28  8
17  31  8
18  50  8
18  54  8
19  22  6
23  25  8
23  27  8
24  25  8
24  26  8
24  28  8
26  29  8
27  29  8
30  32  8
30  33  8
32  35  8
33  36  8
34  35  8
34  36  8
38  42  8
38  44  8
39  43  8
39  45  8
4  50  8
4  53  8
40  46  8
40  48  8
41  47  8
41  49  8
42  46  8
43  47  8
44  48  8
45  49  8
53  54  8

$$$$
44247727
  -OEChem-11282412102D

 60 63  0     0  0  0  0  0  0999 V2000
    8.9039    1.5173    0.0000 S   0  0  0  0  0  0  0  0  0  0  0  0
    6.3233   -0.0126    0.0000 F   0  0  0  0  0  0  0  0  0  0  0  0
    6.3465   -2.0125    0.0000 O   0  0  0  0  0  0  0  0  0  0  0  0
    2.8660   -5.0471    0.0000 O   0  0  0  0  0  0  0  0  0  0  0  0
    2.0000   -3.5471    0.0000 O   0  0  0  0  0  0  0  0  0  0  0  0
    9.7525    3.0272    0.0000 O   0  0  0  0  0  0  0  0  0  0  0  0
    6.3580   -5.0817    0.0000 N   0  0  0  0  0  0  0  0  0  0  0  0
    2.8660   -2.0471    0.0000 N   0  0  0  0  0  0  0  0  0  0  0  0
    9.7872    0.0274    0.0000 N   0  0  0  0  0  0  0  0  0  0  0  0
   10.6358    1.5374    0.0000 N   0  0  0  0  0  0  0  0  0  0  0  0
    5.4641   -3.5471    0.0000 C   0  0  0  0  0  0  0  0  0  0  0  0
    5.4641   -4.5471    0.0000 C   0  0  0  0  0  0  0  0  0  0  0  0
    6.3580   -3.0124    0.0000 C   0  0  0  0  0  0  0  0  0  0  0  0
    3.7320   -3.5471    0.0000 C   0  0  0  0  0  0  0  0  0  0  0  0
    4.5981   -3.0471    0.0000 C   0  0  0  0  0  0  0  0  0  0  0  0
    3.7320   -4.5471    0.0000 C   0  0  0  0  0  0  0  0  0  0  0  0
    4.5981   -5.0471    0.0000 C   0  0  0  0  0  0  0  0  0  0  0  0
    7.2641   -3.5263    0.0000 C   0  0  0  0  0  0  0  0  0  0  0  0
    7.2067   -1.5025    0.0000 C   0  0  0  0  0  0  0  0  0  0  0  0
    2.8660   -3.0471    0.0000 C   0  0  0  0  0  0  0  0  0  0  0  0
    7.2641   -4.5679    0.0000 C   0  0  0  0  0  0  0  0  0  0  0  0
    8.9270   -0.4825    0.0000 C   0  0  0  0  0  0  0  0  0  0  0  0
    7.1951   -0.5026    0.0000 C   0  0  0  0  0  0  0  0  0  0  0  0
    8.0784   -1.9924    0.0000 C   0  0  0  0  0  0  0  0  0  0  0  0
    8.0553    0.0074    0.0000 C   0  0  0  0  0  0  0  0  0  0  0  0
    8.9386   -1.4825    0.0000 C   0  0  0  0  0  0  0  0  0  0  0  0
   11.4845    3.0473    0.0000 C   0  0  0  0  0  0  0  0  0  0  0  0
   11.4729    4.0472    0.0000 C   0  0  0  0  0  0  0  0  0  0  0  0
   10.6243    2.5373    0.0000 C   0  0  0  0  0  0  0  0  0  0  0  0
   10.6012    4.5372    0.0000 C   0  0  0  0  0  0  0  0  0  0  0  0
   12.3331    4.5572    0.0000 C   0  0  0  0  0  0  0  0  0  0  0  0
    9.7757    1.0274    0.0000 C   0  0  0  0  0  0  0  0  0  0  0  0
    2.8660   -6.0471    0.0000 C   0  0  0  0  0  0  0  0  0  0  0  0
    2.0000   -1.5471    0.0000 C   0  0  0  0  0  0  0  0  0  0  0  0
   10.5896    5.5371    0.0000 C   0  0  0  0  0  0  0  0  0  0  0  0
   12.3215    5.5571    0.0000 C   0  0  0  0  0  0  0  0  0  0  0  0
   11.4498    6.0471    0.0000 C   0  0  0  0  0  0  0  0  0  0  0  0
    4.5981   -2.4271    0.0000 H   0  0  0  0  0  0  0  0  0  0  0  0
    4.5981   -5.6671    0.0000 H   0  0  0  0  0  0  0  0  0  0  0  0
    7.7998   -3.2142    0.0000 H   0  0  0  0  0  0  0  0  0  0  0  0
    7.7998   -4.8800    0.0000 H   0  0  0  0  0  0  0  0  0  0  0  0
    8.0856   -2.6124    0.0000 H   0  0  0  0  0  0  0  0  0  0  0  0
    8.0481    0.6274    0.0000 H   0  0  0  0  0  0  0  0  0  0  0  0
    9.4791   -1.7862    0.0000 H   0  0  0  0  0  0  0  0  0  0  0  0
   11.7032    2.4672    0.0000 H   0  0  0  0  0  0  0  0  0  0  0  0
   12.0938    3.1620    0.0000 H   0  0  0  0  0  0  0  0  0  0  0  0
    3.4030   -1.7371    0.0000 H   0  0  0  0  0  0  0  0  0  0  0  0
   10.3277   -0.2763    0.0000 H   0  0  0  0  0  0  0  0  0  0  0  0
   10.0678    4.2210    0.0000 H   0  0  0  0  0  0  0  0  0  0  0  0
   12.8736    4.2534    0.0000 H   0  0  0  0  0  0  0  0  0  0  0  0
   11.1763    1.2336    0.0000 H   0  0  0  0  0  0  0  0  0  0  0  0
    2.2460   -6.0471    0.0000 H   0  0  0  0  0  0  0  0  0  0  0  0
    2.8660   -6.6671    0.0000 H   0  0  0  0  0  0  0  0  0  0  0  0
    3.4860   -6.0471    0.0000 H   0  0  0  0  0  0  0  0  0  0  0  0
    2.3100   -1.0101    0.0000 H   0  0  0  0  0  0  0  0  0  0  0  0
    1.4631   -1.2371    0.0000 H   0  0  0  0  0  0  0  0  0  0  0  0
    1.6900   -2.0840    0.0000 H   0  0  0  0  0  0  0  0  0  0  0  0
   10.0491    5.8409    0.0000 H   0  0  0  0  0  0  0  0  0  0  0  0
   12.8548    5.8733    0.0000 H   0  0  0  0  0  0  0  0  0  0  0  0
   11.4426    6.6670    0.0000 H   0  0  0  0  0  0  0  0  0  0  0  0
  1 32  2  0  0  0  0
  2 23  1  0  0  0  0
  3 13  1  0  0  0  0
  3 19  1  0  0  0  0
  4 16  1  0  0  0  0
  4 33  1  0  0  0  0
  5 20  2  0  0  0  0
  6 29  2  0  0  0  0
  7 12  2  0  0  0  0
  7 21  1  0  0  0  0
  8 20  1  0  0  0  0
  8 34  1  0  0  0  0
  8 47  1  0  0  0  0
  9 22  1  0  0  0  0
  9 32  1  0  0  0  0
  9 48  1  0  0  0  0
 10 29  1  0  0  0  0
 10 32  1  0  0  0  0
 10 51  1  0  0  0  0
 11 12  1  0  0  0  0
 11 13  2  0  0  0  0
 11 15  1  0  0  0  0
 12 17  1  0  0  0  0
 13 18  1  0  0  0  0
 14 15  2  0  0  0  0
 14 16  1  0  0  0  0
 14 20  1  0  0  0  0
 15 38  1  0  0  0  0
 16 17  2  0  0  0  0
 17 39  1  0  0  0  0
 18 21  2  0  0  0  0
 18 40  1  0  0  0  0
 19 23  2  0  0  0  0
 19 24  1  0  0  0  0
 21 41  1  0  0  0  0
 22 25  2  0  0  0  0
 22 26  1  0  0  0  0
 23 25  1  0  0  0  0
 24 26  2  0  0  0  0
 24 42  1  0  0  0  0
 25 43  1  0  0  0  0
 26 44  1  0  0  0  0
 27 28  1  0  0  0  0
 27 29  1  0  0  0  0
 27 45  1  0  0  0  0
 27 46  1  0  0  0  0
 28 30  2  0  0  0  0
 28 31  1  0  0  0  0
 30 35  1  0  0  0  0
 30 49  1  0  0  0  0
 31 36  2  0  0  0  0
 31 50  1  0  0  0  0
 33 52  1  0  0  0  0
 33 53  1  0  0  0  0
 33 54  1  0  0  0  0
 34 55  1  0  0  0  0
 34 56  1  0  0  0  0
 34 57  1  0  0  0  0
 35 37  2  0  0  0  0
 35 58  1  0  0  0  0
 36 37  1  0  0  0  0
 36 59  1  0  0  0  0
 37 60  1  0  0  0  0
M  END
> <PUBCHEM_COMPOUND_CID>
44247727

> <PUBCHEM_COMPOUND_CANONICALIZED>
1

> <PUBCHEM_CACTVS_COMPLEXITY>
798

> <PUBCHEM_CACTVS_HBOND_ACCEPTOR>
7

> <PUBCHEM_CACTVS_HBOND_DONOR>
3

> <PUBCHEM_CACTVS_ROTATABLE_BOND>
7

> <PUBCHEM_CACTVS_SUBSKEYS>
AAADceB7uQBAAAAAAAAAAAAAAAAAAAAAAAA8YMEAAAAAAACx9AAAHwQQAAAADAzBng4/xvLIFACsAzV3VACCiCA1IikI2KE+bNiMJvbEtZuGOWju8xvI6ae4/e/eKEACAgAKAABQgAQEABQAAAAAAAAAAA==

> <PUBCHEM_IUPAC_OPENEYE_NAME>
4-[2-fluoro-4-[(2-phenylacetyl)carbamothioylamino]phenoxy]-7-methoxy-N-methyl-quinoline-6-carboxamide

> <PUBCHEM_IUPAC_CAS_NAME>
4-[2-fluoro-4-[[[(1-oxo-2-phenylethyl)amino]-sulfanylidenemethyl]amino]phenoxy]-7-methoxy-N-methyl-6-quinolinecarboxamide

> <PUBCHEM_IUPAC_NAME_MARKUP>
4-[2-fluoro-4-[(2-phenylacetyl)carbamothioylamino]phenoxy]-7-methoxy-<I>N</I>-methylquinoline-6-carboxamide

> <PUBCHEM_IUPAC_NAME>
4-[2-fluoro-4-[(2-phenylacetyl)carbamothioylamino]phenoxy]-7-methoxy-N-methylquinoline-6-carboxamide

> <PUBCHEM_IUPAC_SYSTEMATIC_NAME>
4-[2-fluoranyl-4-(2-phenylethanoylcarbamothioylamino)phenoxy]-7-methoxy-N-methyl-quinoline-6-carboxamide

> <PUBCHEM_IUPAC_TRADITIONAL_NAME>
4-[2-fluoro-4-[(2-phenylacetyl)thiocarbamoylamino]phenoxy]-7-methoxy-N-methyl-quinoline-6-carboxamide

> <PUBCHEM_IUPAC_INCHI>
InChI=1S/C27H23FN4O4S/c1-29-26(34)19-14-18-21(15-24(19)35-2)30-11-10-22(18)36-23-9-8-17(13-20(23)28)31-27(37)32-25(33)12-16-6-4-3-5-7-16/h3-11,13-15H,12H2,1-2H3,(H,29,34)(H2,31,32,33,37)

> <PUBCHEM_IUPAC_INCHIKEY>
ORRNXRYWGDUDOG-UHFFFAOYSA-N

> <PUBCHEM_XLOGP3_AA>
4.6

> <PUBCHEM_EXACT_MASS>
518.14240456

> <PUBCHEM_MOLECULAR_FORMULA>
C27H23FN4O4S

> <PUBCHEM_MOLECULAR_WEIGHT>
518.6

> <PUBCHEM_OPENEYE_CAN_SMILES>
CNC(=O)C1=CC2=C(C=CN=C2C=C1OC)OC3=C(C=C(C=C3)NC(=S)NC(=O)CC4=CC=CC=C4)F

> <PUBCHEM_OPENEYE_ISO_SMILES>
CNC(=O)C1=CC2=C(C=CN=C2C=C1OC)OC3=C(C=C(C=C3)NC(=S)NC(=O)CC4=CC=CC=C4)F

> <PUBCHEM_CACTVS_TPSA>
134

> <PUBCHEM_MONOISOTOPIC_WEIGHT>
518.14240456

> <PUBCHEM_TOTAL_CHARGE>
0

> <PUBCHEM_HEAVY_ATOM_COUNT>
37

> <PUBCHEM_ATOM_DEF_STEREO_COUNT>
0

> <PUBCHEM_ATOM_UDEF_STEREO_COUNT>
0

> <PUBCHEM_BOND_DEF_STEREO_COUNT>
0

> <PUBCHEM_BOND_UDEF_STEREO_COUNT>
0

> <PUBCHEM_ISOTOPIC_ATOM_COUNT>
0

> <PUBCHEM_COMPONENT_COUNT>
1

> <PUBCHEM_CACTVS_TAUTO_COUNT>
-1

> <PUBCHEM_COORDINATE_TYPE>
1
5
255

> <PUBCHEM_BONDANNOTATIONS>
11  12  8
11  13  8
11  15  8
12  17  8
13  18  8
14  15  8
14  16  8
16  17  8
18  21  8
19  23  8
19  24  8
22  25  8
22  26  8
23  25  8
24  26  8
28  30  8
28  31  8
30  35  8
31  36  8
35  37  8
36  37  8
7  12  8
7  21  8

$$$$
46215462
  -OEChem-11282412102D

 72 78  0     1  0  0  0  0  0999 V2000
   13.8762   -3.8869    0.0000 N   0  0  0  0  0  0  0  0  0  0  0  0
    8.7478   -0.8825    0.0000 N   0  0  0  0  0  0  0  0  0  0  0  0
    7.4121    1.3337    0.0000 N   0  0  0  0  0  0  0  0  0  0  0  0
    7.4459    0.3343    0.0000 N   0  0  0  0  0  0  0  0  0  0  0  0
    8.9670    0.8860    0.0000 N   0  0  0  0  0  0  0  0  0  0  0  0
    4.7892    2.0353    0.0000 N   0  0  0  0  0  0  0  0  0  0  0  0
    5.6452    1.4419    0.0000 N   0  0  0  0  0  0  0  0  0  0  0  0
    8.6289    2.6356    0.0000 N   0  0  0  0  0  0  0  0  0  0  0  0
   13.1134   -3.2403    0.0000 C   0  0  2  0  0  0  0  0  0  0  0  0
   14.8477   -3.6498    0.0000 C   0  0  0  0  0  0  0  0  0  0  0  0
   13.8015   -4.8841    0.0000 C   0  0  0  0  0  0  0  0  0  0  0  0
   12.1998   -3.6471    0.0000 C   0  0  0  0  0  0  0  0  0  0  0  0
   13.3649   -2.2725    0.0000 C   0  0  0  0  0  0  0  0  0  0  0  0
   15.3734   -4.5005    0.0000 C   0  0  0  0  0  0  0  0  0  0  0  0
   14.7268   -5.2634    0.0000 C   0  0  0  0  0  0  0  0  0  0  0  0
   11.3122   -3.1864    0.0000 C   0  0  0  0  0  0  0  0  0  0  0  0
   12.7651   -1.4724    0.0000 C   0  0  0  0  0  0  0  0  0  0  0  0
   11.1190   -2.2053    0.0000 C   0  0  0  0  0  0  0  0  0  0  0  0
   11.7656   -1.4424    0.0000 C   0  0  0  0  0  0  0  0  0  0  0  0
   10.0913   -2.0351    0.0000 C   0  0  0  0  0  0  0  0  0  0  0  0
   11.4294   -0.4566    0.0000 C   0  0  0  0  0  0  0  0  0  0  0  0
    9.7324   -1.0573    0.0000 C   0  0  0  0  0  0  0  0  0  0  0  0
   10.4059   -0.2627    0.0000 C   0  0  0  0  0  0  0  0  0  0  0  0
    5.3830    5.2634    0.0000 C   0  0  0  0  0  0  0  0  0  0  0  0
    6.0065    4.4815    0.0000 C   0  0  0  0  0  0  0  0  0  0  0  0
    4.3830    5.2634    0.0000 C   0  0  0  0  0  0  0  0  0  0  0  0
    8.4068    0.0576    0.0000 C   0  0  0  0  0  0  0  0  0  0  0  0
    5.7840    3.5066    0.0000 C   0  0  0  0  0  0  0  0  0  0  0  0
    3.7595    4.4815    0.0000 C   0  0  0  0  0  0  0  0  0  0  0  0
    3.9820    3.5066    0.0000 C   0  0  0  0  0  0  0  0  0  0  0  0
    4.8830    3.0727    0.0000 C   0  0  0  0  0  0  0  0  0  0  0  0
    6.6536    2.9332    0.0000 C   0  0  0  0  0  0  0  0  0  0  0  0
    6.5837    1.8939    0.0000 C   0  0  0  0  0  0  0  0  0  0  0  0
    2.7690    4.8038    0.0000 C   0  0  0  0  0  0  0  0  0  0  0  0
    3.2295    2.7864    0.0000 C   0  0  0  0  0  0  0  0  0  0  0  0
    8.3522    1.6747    0.0000 C   0  0  0  0  0  0  0  0  0  0  0  0
    2.0000    4.1013    0.0000 C   0  0  0  0  0  0  0  0  0  0  0  0
    2.2318    3.0858    0.0000 C   0  0  0  0  0  0  0  0  0  0  0  0
   13.0255   -3.8541    0.0000 H   0  0  0  0  0  0  0  0  0  0  0  0
   15.4063   -3.3808    0.0000 H   0  0  0  0  0  0  0  0  0  0  0  0
   14.6385   -3.0662    0.0000 H   0  0  0  0  0  0  0  0  0  0  0  0
   13.1914   -4.7734    0.0000 H   0  0  0  0  0  0  0  0  0  0  0  0
   13.6276   -5.4793    0.0000 H   0  0  0  0  0  0  0  0  0  0  0  0
   11.7989   -4.1200    0.0000 H   0  0  0  0  0  0  0  0  0  0  0  0
   12.5717   -4.1431    0.0000 H   0  0  0  0  0  0  0  0  0  0  0  0
   13.9152   -2.5581    0.0000 H   0  0  0  0  0  0  0  0  0  0  0  0
   13.7658   -1.7995    0.0000 H   0  0  0  0  0  0  0  0  0  0  0  0
   15.8018   -4.9486    0.0000 H   0  0  0  0  0  0  0  0  0  0  0  0
   15.8638   -4.1212    0.0000 H   0  0  0  0  0  0  0  0  0  0  0  0
   14.4330   -5.8093    0.0000 H   0  0  0  0  0  0  0  0  0  0  0  0
   15.2390   -5.6126    0.0000 H   0  0  0  0  0  0  0  0  0  0  0  0
   10.6925   -3.1679    0.0000 H   0  0  0  0  0  0  0  0  0  0  0  0
   11.1562   -3.7865    0.0000 H   0  0  0  0  0  0  0  0  0  0  0  0
   13.3315   -1.2202    0.0000 H   0  0  0  0  0  0  0  0  0  0  0  0
   12.6453   -0.8640    0.0000 H   0  0  0  0  0  0  0  0  0  0  0  0
    9.6959   -2.5127    0.0000 H   0  0  0  0  0  0  0  0  0  0  0  0
   11.8357    0.0117    0.0000 H   0  0  0  0  0  0  0  0  0  0  0  0
   10.1990    0.3218    0.0000 H   0  0  0  0  0  0  0  0  0  0  0  0
    8.3487   -1.3570    0.0000 H   0  0  0  0  0  0  0  0  0  0  0  0
    5.9416    5.5324    0.0000 H   0  0  0  0  0  0  0  0  0  0  0  0
    5.2450    5.8678    0.0000 H   0  0  0  0  0  0  0  0  0  0  0  0
    6.5651    4.2125    0.0000 H   0  0  0  0  0  0  0  0  0  0  0  0
    6.3930    4.9662    0.0000 H   0  0  0  0  0  0  0  0  0  0  0  0
    4.5210    5.8678    0.0000 H   0  0  0  0  0  0  0  0  0  0  0  0
    3.8244    5.5324    0.0000 H   0  0  0  0  0  0  0  0  0  0  0  0
    7.2090    3.2086    0.0000 H   0  0  0  0  0  0  0  0  0  0  0  0
    2.6380    5.4099    0.0000 H   0  0  0  0  0  0  0  0  0  0  0  0
    3.3744    2.1836    0.0000 H   0  0  0  0  0  0  0  0  0  0  0  0
    1.4082    4.2863    0.0000 H   0  0  0  0  0  0  0  0  0  0  0  0
    1.7789    2.6623    0.0000 H   0  0  0  0  0  0  0  0  0  0  0  0
    9.2307    2.7849    0.0000 H   0  0  0  0  0  0  0  0  0  0  0  0
    8.1987    3.0821    0.0000 H   0  0  0  0  0  0  0  0  0  0  0  0
  9  1  1  6  0  0  0
  1 10  1  0  0  0  0
  1 11  1  0  0  0  0
  2 22  1  0  0  0  0
  2 27  1  0  0  0  0
  2 59  1  0  0  0  0
  3  4  1  0  0  0  0
  3 33  1  0  0  0  0
  3 36  1  0  0  0  0
  4 27  2  0  0  0  0
  5 27  1  0  0  0  0
  5 36  2  0  0  0  0
  6  7  1  0  0  0  0
  6 31  2  0  0  0  0
  7 33  2  0  0  0  0
  8 36  1  0  0  0  0
  8 71  1  0  0  0  0
  8 72  1  0  0  0  0
  9 12  1  0  0  0  0
  9 13  1  0  0  0  0
  9 39  1  0  0  0  0
 10 14  1  0  0  0  0
 10 40  1  0  0  0  0
 10 41  1  0  0  0  0
 11 15  1  0  0  0  0
 11 42  1  0  0  0  0
 11 43  1  0  0  0  0
 12 16  1  0  0  0  0
 12 44  1  0  0  0  0
 12 45  1  0  0  0  0
 13 17  1  0  0  0  0
 13 46  1  0  0  0  0
 13 47  1  0  0  0  0
 14 15  1  0  0  0  0
 14 48  1  0  0  0  0
 14 49  1  0  0  0  0
 15 50  1  0  0  0  0
 15 51  1  0  0  0  0
 16 18  1  0  0  0  0
 16 52  1  0  0  0  0
 16 53  1  0  0  0  0
 17 19  1  0  0  0  0
 17 54  1  0  0  0  0
 17 55  1  0  0  0  0
 18 19  2  0  0  0  0
 18 20  1  0  0  0  0
 19 21  1  0  0  0  0
 20 22  2  0  0  0  0
 20 56  1  0  0  0  0
 21 23  2  0  0  0  0
 21 57  1  0  0  0  0
 22 23  1  0  0  0  0
 23 58  1  0  0  0  0
 24 25  1  0  0  0  0
 24 26  1  0  0  0  0
 24 60  1  0  0  0  0
 24 61  1  0  0  0  0
 25 28  1  0  0  0  0
 25 62  1  0  0  0  0
 25 63  1  0  0  0  0
 26 29  1  0  0  0  0
 26 64  1  0  0  0  0
 26 65  1  0  0  0  0
 28 31  1  0  0  0  0
 28 32  2  0  0  0  0
 29 30  1  0  0  0  0
 29 34  2  0  0  0  0
 30 31  1  0  0  0  0
 30 35  2  0  0  0  0
 32 33  1  0  0  0  0
 32 66  1  0  0  0  0
 34 37  1  0  0  0  0
 34 67  1  0  0  0  0
 35 38  1  0  0  0  0
 35 68  1  0  0  0  0
 37 38  2  0  0  0  0
 37 69  1  0  0  0  0
 38 70  1  0  0  0  0
M  END
> <PUBCHEM_COMPOUND_CID>
46215462

> <PUBCHEM_COMPOUND_CANONICALIZED>
1

> <PUBCHEM_CACTVS_COMPLEXITY>
775

> <PUBCHEM_CACTVS_HBOND_ACCEPTOR>
7

> <PUBCHEM_CACTVS_HBOND_DONOR>
2

> <PUBCHEM_CACTVS_ROTATABLE_BOND>
4

> <PUBCHEM_CACTVS_SUBSKEYS>
AAADcfB7wAAAAAAAAAAAAAAAAAAAAWLAAAA8YIAABgwAAAAB9AAAHAAYAAAADCjBHgQx8JfIEACiAyZiZACSBCshAoAdmCA4ZJiIKKLAmZGEoAh4mALIyCcQgMAOiAAAQAAQAAAQAACAACAAAAAAAAAAAA==

> <PUBCHEM_IUPAC_OPENEYE_NAME>
1-(3,4-diazatricyclo[9.4.0.02,7]pentadeca-1(15),2,4,6,11,13-hexaen-5-yl)-N3-[(7S)-7-pyrrolidin-1-yl-6,7,8,9-tetrahydro-5H-benzo[7]annulen-3-yl]-1,2,4-triazole-3,5-diamine

> <PUBCHEM_IUPAC_CAS_NAME>
1-(3,4-diazatricyclo[9.4.0.02,7]pentadeca-1(15),2,4,6,11,13-hexaen-5-yl)-N3-[(7S)-7-(1-pyrrolidinyl)-6,7,8,9-tetrahydro-5H-benzo[7]annulen-3-yl]-1,2,4-triazole-3,5-diamine

> <PUBCHEM_IUPAC_NAME_MARKUP>
1-(3,4-diazatricyclo[9.4.0.0<SUP>2,7</SUP>]pentadeca-1(15),2,4,6,11,13-hexaen-5-yl)-3-<I>N</I>-[(7<I>S</I>)-7-pyrrolidin-1-yl-6,7,8,9-tetrahydro-5<I>H</I>-benzo[7]annulen-3-yl]-1,2,4-triazole-3,5-diamine

> <PUBCHEM_IUPAC_NAME>
1-(3,4-diazatricyclo[9.4.0.02,7]pentadeca-1(15),2,4,6,11,13-hexaen-5-yl)-3-N-[(7S)-7-pyrrolidin-1-yl-6,7,8,9-tetrahydro-5H-benzo[7]annulen-3-yl]-1,2,4-triazole-3,5-diamine

> <PUBCHEM_IUPAC_SYSTEMATIC_NAME>
1-(3,4-diazatricyclo[9.4.0.02,7]pentadeca-1(15),2,4,6,11,13-hexaen-5-yl)-N3-[(7S)-7-pyrrolidin-1-yl-6,7,8,9-tetrahydro-5H-benzo[7]annulen-3-yl]-1,2,4-triazole-3,5-diamine

> <PUBCHEM_IUPAC_TRADITIONAL_NAME>
[5-amino-1-(3,4-diazatricyclo[9.4.0.02,7]pentadeca-1(15),2,4,6,11,13-hexaen-5-yl)-1,2,4-triazol-3-yl]-[(7S)-7-pyrrolidino-6,7,8,9-tetrahydro-5H-benzocyclohepten-3-yl]amine

> <PUBCHEM_IUPAC_INCHI>
InChI=1S/C30H34N8/c31-29-33-30(32-24-13-10-20-11-14-25(15-12-22(20)18-24)37-16-3-4-17-37)36-38(29)27-19-23-8-5-7-21-6-1-2-9-26(21)28(23)35-34-27/h1-2,6,9-10,13,18-19,25H,3-5,7-8,11-12,14-17H2,(H3,31,32,33,36)/t25-/m0/s1

> <PUBCHEM_IUPAC_INCHIKEY>
KXMZDGSRSGHMMK-VWLOTQADSA-N

> <PUBCHEM_XLOGP3_AA>
5.5

> <PUBCHEM_EXACT_MASS>
506.29064312

> <PUBCHEM_MOLECULAR_FORMULA>
C30H34N8

> <PUBCHEM_MOLECULAR_WEIGHT>
506.6

> <PUBCHEM_OPENEYE_CAN_SMILES>
C1CCN(C1)C2CCC3=C(CC2)C=C(C=C3)NC4=NN(C(=N4)N)C5=NN=C6C(=C5)CCCC7=CC=CC=C76

> <PUBCHEM_OPENEYE_ISO_SMILES>
C1CCN(C1)[C@H]2CCC3=C(CC2)C=C(C=C3)NC4=NN(C(=N4)N)C5=NN=C6C(=C5)CCCC7=CC=CC=C76

> <PUBCHEM_CACTVS_TPSA>
97.8

> <PUBCHEM_MONOISOTOPIC_WEIGHT>
506.29064312

> <PUBCHEM_TOTAL_CHARGE>
0

> <PUBCHEM_HEAVY_ATOM_COUNT>
38

> <PUBCHEM_ATOM_DEF_STEREO_COUNT>
1

> <PUBCHEM_ATOM_UDEF_STEREO_COUNT>
0

> <PUBCHEM_BOND_DEF_STEREO_COUNT>
0

> <PUBCHEM_BOND_UDEF_STEREO_COUNT>
0

> <PUBCHEM_ISOTOPIC_ATOM_COUNT>
0

> <PUBCHEM_COMPONENT_COUNT>
1

> <PUBCHEM_CACTVS_TAUTO_COUNT>
-1

> <PUBCHEM_COORDINATE_TYPE>
1
5
255

> <PUBCHEM_BONDANNOTATIONS>
9  1  6
18  19  8
18  20  8
19  21  8
20  22  8
21  23  8
22  23  8
28  31  8
28  32  8
29  30  8
29  34  8
3  36  8
3  4  8
30  35  8
32  33  8
34  37  8
35  38  8
37  38  8
4  27  8
5  27  8
5  36  8
6  31  8
6  7  8
7  33  8

$$$$
46834118
  -OEChem-11282412102D

 64 68  0     1  0  0  0  0  0999 V2000
   15.0563   -2.5346    0.0000 F   0  0  0  0  0  0  0  0  0  0  0  0
    2.8641    0.5196    0.0000 O   0  0  0  0  0  0  0  0  0  0  0  0
   12.4303    1.0000    0.0000 N   0  0  0  0  0  0  0  0  0  0  0  0
   11.5243   -0.5554    0.0000 N   0  0  0  0  0  0  0  0  0  0  0  0
   10.6602    0.9895    0.0000 N   0  0  0  0  0  0  0  0  0  0  0  0
    5.4641    1.0096    0.0000 N   0  0  0  0  0  0  0  0  0  0  0  0
   15.0563   -0.5346    0.0000 C   0  0  2  0  0  0  0  0  0  0  0  0
   14.1903   -1.0346    0.0000 C   0  0  0  0  0  0  0  0  0  0  0  0
   15.0563    0.4654    0.0000 C   0  0  0  0  0  0  0  0  0  0  0  0
   13.3243   -0.5346    0.0000 C   0  0  0  0  0  0  0  0  0  0  0  0
   14.1903    0.9654    0.0000 C   0  0  0  0  0  0  0  0  0  0  0  0
   13.3243    0.4654    0.0000 C   0  0  0  0  0  0  0  0  0  0  0  0
   15.9224   -1.0346    0.0000 C   0  0  0  0  0  0  0  0  0  0  0  0
   15.9663    0.9722    0.0000 C   0  0  0  0  0  0  0  0  0  0  0  0
   14.1743    2.0069    0.0000 C   0  0  0  0  0  0  0  0  0  0  0  0
   12.4303   -1.0693    0.0000 C   0  0  0  0  0  0  0  0  0  0  0  0
   15.9224   -2.0346    0.0000 C   0  0  0  0  0  0  0  0  0  0  0  0
   16.7884   -0.5346    0.0000 C   0  0  0  0  0  0  0  0  0  0  0  0
   15.9744    2.0138    0.0000 C   0  0  0  0  0  0  0  0  0  0  0  0
   15.0723    2.5346    0.0000 C   0  0  0  0  0  0  0  0  0  0  0  0
   11.5243    0.4862    0.0000 C   0  0  0  0  0  0  0  0  0  0  0  0
   16.7884   -2.5346    0.0000 C   0  0  0  0  0  0  0  0  0  0  0  0
   17.6544   -1.0346    0.0000 C   0  0  0  0  0  0  0  0  0  0  0  0
   17.6544   -2.0346    0.0000 C   0  0  0  0  0  0  0  0  0  0  0  0
    9.7922    0.4929    0.0000 C   0  0  0  0  0  0  0  0  0  0  0  0
    7.1961    1.0029    0.0000 C   0  0  0  0  0  0  0  0  0  0  0  0
    8.0602    0.4995    0.0000 C   0  0  0  0  0  0  0  0  0  0  0  0
    8.9282    0.9962    0.0000 C   0  0  0  0  0  0  0  0  0  0  0  0
    6.3282    0.5062    0.0000 C   0  0  0  0  0  0  0  0  0  0  0  0
    9.7884   -0.5071    0.0000 C   0  0  0  0  0  0  0  0  0  0  0  0
    8.0564   -0.5005    0.0000 C   0  0  0  0  0  0  0  0  0  0  0  0
    8.9204   -1.0038    0.0000 C   0  0  0  0  0  0  0  0  0  0  0  0
    4.5961    0.5129    0.0000 C   0  0  0  0  0  0  0  0  0  0  0  0
    3.7320    1.0162    0.0000 C   0  0  0  0  0  0  0  0  0  0  0  0
    2.0000    1.0229    0.0000 C   0  0  0  0  0  0  0  0  0  0  0  0
   15.0563   -1.1546    0.0000 H   0  0  0  0  0  0  0  0  0  0  0  0
   13.7918   -1.5096    0.0000 H   0  0  0  0  0  0  0  0  0  0  0  0
   14.5888   -1.5096    0.0000 H   0  0  0  0  0  0  0  0  0  0  0  0
   16.4997    0.6560    0.0000 H   0  0  0  0  0  0  0  0  0  0  0  0
   13.6338    2.3106    0.0000 H   0  0  0  0  0  0  0  0  0  0  0  0
   12.4375   -1.6892    0.0000 H   0  0  0  0  0  0  0  0  0  0  0  0
   16.7884    0.0854    0.0000 H   0  0  0  0  0  0  0  0  0  0  0  0
   16.5125    2.3217    0.0000 H   0  0  0  0  0  0  0  0  0  0  0  0
   15.0699    3.1546    0.0000 H   0  0  0  0  0  0  0  0  0  0  0  0
   16.7884   -3.1546    0.0000 H   0  0  0  0  0  0  0  0  0  0  0  0
   18.1914   -0.7246    0.0000 H   0  0  0  0  0  0  0  0  0  0  0  0
   18.1914   -2.3446    0.0000 H   0  0  0  0  0  0  0  0  0  0  0  0
   10.6626    1.6095    0.0000 H   0  0  0  0  0  0  0  0  0  0  0  0
    7.5965    1.4763    0.0000 H   0  0  0  0  0  0  0  0  0  0  0  0
    6.7994    1.4794    0.0000 H   0  0  0  0  0  0  0  0  0  0  0  0
    8.9305    1.6162    0.0000 H   0  0  0  0  0  0  0  0  0  0  0  0
    5.9278    0.0328    0.0000 H   0  0  0  0  0  0  0  0  0  0  0  0
    6.7249    0.0297    0.0000 H   0  0  0  0  0  0  0  0  0  0  0  0
   10.3241   -0.8192    0.0000 H   0  0  0  0  0  0  0  0  0  0  0  0
    7.5182   -0.8084    0.0000 H   0  0  0  0  0  0  0  0  0  0  0  0
    5.4665    1.6295    0.0000 H   0  0  0  0  0  0  0  0  0  0  0  0
    8.9180   -1.6238    0.0000 H   0  0  0  0  0  0  0  0  0  0  0  0
    4.1958    0.0395    0.0000 H   0  0  0  0  0  0  0  0  0  0  0  0
    4.9928    0.0364    0.0000 H   0  0  0  0  0  0  0  0  0  0  0  0
    4.1324    1.4896    0.0000 H   0  0  0  0  0  0  0  0  0  0  0  0
    3.3353    1.4927    0.0000 H   0  0  0  0  0  0  0  0  0  0  0  0
    2.3121    1.5586    0.0000 H   0  0  0  0  0  0  0  0  0  0  0  0
    1.4643    1.3350    0.0000 H   0  0  0  0  0  0  0  0  0  0  0  0
    1.6879    0.4872    0.0000 H   0  0  0  0  0  0  0  0  0  0  0  0
  1 17  1  0  0  0  0
  2 34  1  0  0  0  0
  2 35  1  0  0  0  0
  3 12  2  0  0  0  0
  3 21  1  0  0  0  0
  4 16  1  0  0  0  0
  4 21  2  0  0  0  0
  5 21  1  0  0  0  0
  5 25  1  0  0  0  0
  5 48  1  0  0  0  0
  6 29  1  0  0  0  0
  6 33  1  0  0  0  0
  6 56  1  0  0  0  0
  7  8  1  0  0  0  0
  7  9  1  0  0  0  0
  7 13  1  6  0  0  0
  7 36  1  0  0  0  0
  8 10  1  0  0  0  0
  8 37  1  0  0  0  0
  8 38  1  0  0  0  0
  9 11  1  0  0  0  0
  9 14  2  0  0  0  0
 10 12  1  0  0  0  0
 10 16  2  0  0  0  0
 11 12  1  0  0  0  0
 11 15  2  0  0  0  0
 13 17  1  0  0  0  0
 13 18  2  0  0  0  0
 14 19  1  0  0  0  0
 14 39  1  0  0  0  0
 15 20  1  0  0  0  0
 15 40  1  0  0  0  0
 16 41  1  0  0  0  0
 17 22  2  0  0  0  0
 18 23  1  0  0  0  0
 18 42  1  0  0  0  0
 19 20  2  0  0  0  0
 19 43  1  0  0  0  0
 20 44  1  0  0  0  0
 22 24  1  0  0  0  0
 22 45  1  0  0  0  0
 23 24  2  0  0  0  0
 23 46  1  0  0  0  0
 24 47  1  0  0  0  0
 25 28  1  0  0  0  0
 25 30  2  0  0  0  0
 26 27  1  0  0  0  0
 26 29  1  0  0  0  0
 26 49  1  0  0  0  0
 26 50  1  0  0  0  0
 27 28  2  0  0  0  0
 27 31  1  0  0  0  0
 28 51  1  0  0  0  0
 29 52  1  0  0  0  0
 29 53  1  0  0  0  0
 30 32  1  0  0  0  0
 30 54  1  0  0  0  0
 31 32  2  0  0  0  0
 31 55  1  0  0  0  0
 32 57  1  0  0  0  0
 33 34  1  0  0  0  0
 33 58  1  0  0  0  0
 33 59  1  0  0  0  0
 34 60  1  0  0  0  0
 34 61  1  0  0  0  0
 35 62  1  0  0  0  0
 35 63  1  0  0  0  0
 35 64  1  0  0  0  0
M  END
> <PUBCHEM_COMPOUND_CID>
46834118

> <PUBCHEM_COMPOUND_CANONICALIZED>
1

> <PUBCHEM_CACTVS_COMPLEXITY>
638

> <PUBCHEM_CACTVS_HBOND_ACCEPTOR>
6

> <PUBCHEM_CACTVS_HBOND_DONOR>
2

> <PUBCHEM_CACTVS_ROTATABLE_BOND>
9

> <PUBCHEM_CACTVS_SUBSKEYS>
AAADceB7oQAAAAAAAAAAAAAAAAAAAAAAAAA8YMGCAAAAAADx1AAAHwAQAAAADQjhng4/0JbIFACgAzRnZACCgCkxAqAJ2KAoZJiKKKLA2dGFJAhokALYyCcQgMAOgAAAQAAQAACQAASAACQAAAAAAAAAAA==

> <PUBCHEM_IUPAC_OPENEYE_NAME>
(6R)-6-(2-fluorophenyl)-N-[3-[2-(2-methoxyethylamino)ethyl]phenyl]-5,6-dihydrobenzo[h]quinazolin-2-amine

> <PUBCHEM_IUPAC_CAS_NAME>
(6R)-6-(2-fluorophenyl)-N-[3-[2-(2-methoxyethylamino)ethyl]phenyl]-5,6-dihydrobenzo[h]quinazolin-2-amine

> <PUBCHEM_IUPAC_NAME_MARKUP>
(6<I>R</I>)-6-(2-fluorophenyl)-<I>N</I>-[3-[2-(2-methoxyethylamino)ethyl]phenyl]-5,6-dihydrobenzo[h]quinazolin-2-amine

> <PUBCHEM_IUPAC_NAME>
(6R)-6-(2-fluorophenyl)-N-[3-[2-(2-methoxyethylamino)ethyl]phenyl]-5,6-dihydrobenzo[h]quinazolin-2-amine

> <PUBCHEM_IUPAC_SYSTEMATIC_NAME>
(6R)-6-(2-fluorophenyl)-N-[3-[2-(2-methoxyethylamino)ethyl]phenyl]-5,6-dihydrobenzo[h]quinazolin-2-amine

> <PUBCHEM_IUPAC_TRADITIONAL_NAME>
[(6R)-6-(2-fluorophenyl)-5,6-dihydrobenzo[h]quinazolin-2-yl]-[3-[2-(2-methoxyethylamino)ethyl]phenyl]amine

> <PUBCHEM_IUPAC_INCHI>
InChI=1S/C29H29FN4O/c1-35-16-15-31-14-13-20-7-6-8-22(17-20)33-29-32-19-21-18-26(24-10-4-5-12-27(24)30)23-9-2-3-11-25(23)28(21)34-29/h2-12,17,19,26,31H,13-16,18H2,1H3,(H,32,33,34)/t26-/m1/s1

> <PUBCHEM_IUPAC_INCHIKEY>
KPJDVVCDVBFRMU-AREMUKBSSA-N

> <PUBCHEM_XLOGP3_AA>
5.3

> <PUBCHEM_EXACT_MASS>
468.23253972

> <PUBCHEM_MOLECULAR_FORMULA>
C29H29FN4O

> <PUBCHEM_MOLECULAR_WEIGHT>
468.6

> <PUBCHEM_OPENEYE_CAN_SMILES>
COCCNCCC1=CC(=CC=C1)NC2=NC=C3CC(C4=CC=CC=C4C3=N2)C5=CC=CC=C5F

> <PUBCHEM_OPENEYE_ISO_SMILES>
COCCNCCC1=CC(=CC=C1)NC2=NC=C3C[C@H](C4=CC=CC=C4C3=N2)C5=CC=CC=C5F

> <PUBCHEM_CACTVS_TPSA>
59.1

> <PUBCHEM_MONOISOTOPIC_WEIGHT>
468.23253972

> <PUBCHEM_TOTAL_CHARGE>
0

> <PUBCHEM_HEAVY_ATOM_COUNT>
35

> <PUBCHEM_ATOM_DEF_STEREO_COUNT>
1

> <PUBCHEM_ATOM_UDEF_STEREO_COUNT>
0

> <PUBCHEM_BOND_DEF_STEREO_COUNT>
0

> <PUBCHEM_BOND_UDEF_STEREO_COUNT>
0

> <PUBCHEM_ISOTOPIC_ATOM_COUNT>
0

> <PUBCHEM_COMPONENT_COUNT>
1

> <PUBCHEM_CACTVS_TAUTO_COUNT>
3

> <PUBCHEM_COORDINATE_TYPE>
1
5
255

> <PUBCHEM_BONDANNOTATIONS>
10  12  8
10  16  8
11  15  8
13  17  8
13  18  8
14  19  8
15  20  8
17  22  8
18  23  8
19  20  8
22  24  8
23  24  8
25  28  8
25  30  8
27  28  8
27  31  8
3  12  8
3  21  8
30  32  8
31  32  8
4  16  8
4  21  8
7  13  6
9  11  8
9  14  8

$$$$
51038315
  -OEChem-11282412102D

 63 65  0     0  0  0  0  0  0999 V2000
   15.2058    3.6946    0.0000 Br  0  0  0  0  0  0  0  0  0  0  0  0
    7.3516    8.3046    0.0000 Br  0  5  0  0  0  0  0  0  0  0  0  0
   15.1827    5.6945    0.0000 Cl  0  0  0  0  0  0  0  0  0  0  0  0
    2.6300    4.7618    0.0000 O   0  5  0  0  0  0  0  0  0  0  0  0
    3.7890    3.4746    0.0000 O   0  0  0  0  0  0  0  0  0  0  0  0
    7.3954    1.1200    0.0000 O   0  0  0  0  0  0  0  0  0  0  0  0
    3.9313    2.1200    0.0000 N   0  3  0  0  0  0  0  0  0  0  0  0
    1.2857    1.7133    0.0000 N   0  0  0  0  0  0  0  0  0  0  0  0
    1.1166    3.3224    0.0000 N   0  0  0  0  0  0  0  0  0  0  0  0
    2.8379    3.7836    0.0000 N   0  3  0  0  0  0  0  0  0  0  0  0
    8.2615    2.6200    0.0000 N   0  0  0  0  0  0  0  0  0  0  0  0
    9.1275    1.1200    0.0000 N   0  0  0  0  0  0  0  0  0  0  0  0
   11.7419    3.6546    0.0000 N   0  0  0  0  0  0  0  0  0  0  0  0
   11.7535    0.5853    0.0000 N   0  0  0  0  0  0  0  0  0  0  0  0
   12.6595    2.1408    0.0000 N   0  0  0  0  0  0  0  0  0  0  0  0
    3.0653    1.6200    0.0000 C   0  0  0  0  0  0  0  0  0  0  0  0
    4.7974    2.6200    0.0000 C   0  0  0  0  0  0  0  0  0  0  0  0
    3.4313    2.9860    0.0000 C   0  0  0  0  0  0  0  0  0  0  0  0
    4.4313    1.2540    0.0000 C   0  0  0  0  0  0  0  0  0  0  0  0
    2.1993    2.1200    0.0000 C   0  0  0  0  0  0  0  0  0  0  0  0
    5.6634    2.1200    0.0000 C   0  0  0  0  0  0  0  0  0  0  0  0
    2.0948    3.1145    0.0000 C   0  0  0  0  0  0  0  0  0  0  0  0
    0.6166    2.4564    0.0000 C   0  0  0  0  0  0  0  0  0  0  0  0
    1.0778    0.7351    0.0000 C   0  0  0  0  0  0  0  0  0  0  0  0
    6.5294    2.6200    0.0000 C   0  0  0  0  0  0  0  0  0  0  0  0
    7.3954    2.1200    0.0000 C   0  0  0  0  0  0  0  0  0  0  0  0
    9.1275    2.1200    0.0000 C   0  0  0  0  0  0  0  0  0  0  0  0
   10.8595    2.1200    0.0000 C   0  0  0  0  0  0  0  0  0  0  0  0
    9.9935    2.6200    0.0000 C   0  0  0  0  0  0  0  0  0  0  0  0
   10.8595    1.1200    0.0000 C   0  0  0  0  0  0  0  0  0  0  0  0
   11.7535    2.6547    0.0000 C   0  0  0  0  0  0  0  0  0  0  0  0
    9.9935    0.6200    0.0000 C   0  0  0  0  0  0  0  0  0  0  0  0
   12.6021    4.1646    0.0000 C   0  0  0  0  0  0  0  0  0  0  0  0
   12.6595    1.0992    0.0000 C   0  0  0  0  0  0  0  0  0  0  0  0
   13.4738    3.6746    0.0000 C   0  0  0  0  0  0  0  0  0  0  0  0
   12.5905    5.1645    0.0000 C   0  0  0  0  0  0  0  0  0  0  0  0
   14.3340    4.1846    0.0000 C   0  0  0  0  0  0  0  0  0  0  0  0
   13.4507    5.6745    0.0000 C   0  0  0  0  0  0  0  0  0  0  0  0
   14.3225    5.1845    0.0000 C   0  0  0  0  0  0  0  0  0  0  0  0
    2.6668    1.1450    0.0000 H   0  0  0  0  0  0  0  0  0  0  0  0
    3.4638    1.1450    0.0000 H   0  0  0  0  0  0  0  0  0  0  0  0
    5.1959    3.0950    0.0000 H   0  0  0  0  0  0  0  0  0  0  0  0
    4.3988    3.0950    0.0000 H   0  0  0  0  0  0  0  0  0  0  0  0
    3.9683    3.2960    0.0000 H   0  0  0  0  0  0  0  0  0  0  0  0
    3.1213    3.5230    0.0000 H   0  0  0  0  0  0  0  0  0  0  0  0
    2.8944    2.6760    0.0000 H   0  0  0  0  0  0  0  0  0  0  0  0
    3.8944    0.9440    0.0000 H   0  0  0  0  0  0  0  0  0  0  0  0
    4.7413    0.7170    0.0000 H   0  0  0  0  0  0  0  0  0  0  0  0
    4.9683    1.5640    0.0000 H   0  0  0  0  0  0  0  0  0  0  0  0
    5.6634    1.5000    0.0000 H   0  0  0  0  0  0  0  0  0  0  0  0
    0.0000    2.3916    0.0000 H   0  0  0  0  0  0  0  0  0  0  0  0
    0.4714    0.8640    0.0000 H   0  0  0  0  0  0  0  0  0  0  0  0
    0.9489    0.1287    0.0000 H   0  0  0  0  0  0  0  0  0  0  0  0
    1.6843    0.6062    0.0000 H   0  0  0  0  0  0  0  0  0  0  0  0
    6.5294    3.2400    0.0000 H   0  0  0  0  0  0  0  0  0  0  0  0
    8.2615    3.2400    0.0000 H   0  0  0  0  0  0  0  0  0  0  0  0
    9.9935    3.2400    0.0000 H   0  0  0  0  0  0  0  0  0  0  0  0
    9.9935    0.0000    0.0000 H   0  0  0  0  0  0  0  0  0  0  0  0
   11.2014    3.9584    0.0000 H   0  0  0  0  0  0  0  0  0  0  0  0
   13.1953    0.7871    0.0000 H   0  0  0  0  0  0  0  0  0  0  0  0
   13.4810    3.0547    0.0000 H   0  0  0  0  0  0  0  0  0  0  0  0
   12.0501    5.4683    0.0000 H   0  0  0  0  0  0  0  0  0  0  0  0
   13.4436    6.2944    0.0000 H   0  0  0  0  0  0  0  0  0  0  0  0
  1 37  1  0  0  0  0
  3 39  1  0  0  0  0
  4 10  1  0  0  0  0
  5 10  2  0  0  0  0
  6 26  2  0  0  0  0
  7 16  1  0  0  0  0
  7 17  1  0  0  0  0
  7 18  1  0  0  0  0
  7 19  1  0  0  0  0
  8 20  1  0  0  0  0
  8 23  1  0  0  0  0
  8 24  1  0  0  0  0
  9 22  1  0  0  0  0
  9 23  2  0  0  0  0
 10 22  1  0  0  0  0
 11 26  1  0  0  0  0
 11 27  1  0  0  0  0
 11 56  1  0  0  0  0
 12 27  2  0  0  0  0
 12 32  1  0  0  0  0
 13 31  1  0  0  0  0
 13 33  1  0  0  0  0
 13 59  1  0  0  0  0
 14 30  1  0  0  0  0
 14 34  2  0  0  0  0
 15 31  2  0  0  0  0
 15 34  1  0  0  0  0
 16 20  1  0  0  0  0
 16 40  1  0  0  0  0
 16 41  1  0  0  0  0
 17 21  1  0  0  0  0
 17 42  1  0  0  0  0
 17 43  1  0  0  0  0
 18 44  1  0  0  0  0
 18 45  1  0  0  0  0
 18 46  1  0  0  0  0
 19 47  1  0  0  0  0
 19 48  1  0  0  0  0
 19 49  1  0  0  0  0
 20 22  2  0  0  0  0
 21 25  2  0  0  0  0
 21 50  1  0  0  0  0
 23 51  1  0  0  0  0
 24 52  1  0  0  0  0
 24 53  1  0  0  0  0
 24 54  1  0  0  0  0
 25 26  1  0  0  0  0
 25 55  1  0  0  0  0
 27 29  1  0  0  0  0
 28 29  2  0  0  0  0
 28 30  1  0  0  0  0
 28 31  1  0  0  0  0
 29 57  1  0  0  0  0
 30 32  2  0  0  0  0
 32 58  1  0  0  0  0
 33 35  2  0  0  0  0
 33 36  1  0  0  0  0
 34 60  1  0  0  0  0
 35 37  1  0  0  0  0
 35 61  1  0  0  0  0
 36 38  2  0  0  0  0
 36 62  1  0  0  0  0
 37 39  2  0  0  0  0
 38 39  1  0  0  0  0
 38 63  1  0  0  0  0
M  CHG  4   2  -1   4  -1   7   1  10   1
M  END
> <PUBCHEM_COMPOUND_CID>
51038315

> <PUBCHEM_COMPOUND_CANONICALIZED>
1

> <PUBCHEM_CACTVS_COMPLEXITY>
863

> <PUBCHEM_CACTVS_HBOND_ACCEPTOR>
9

> <PUBCHEM_CACTVS_HBOND_DONOR>
2

> <PUBCHEM_CACTVS_ROTATABLE_BOND>
8

> <PUBCHEM_CACTVS_SUBSKEYS>
AAADceB78AAEGAAAAAAAAAAAAAAAAWAAAAA8WIAAAAAAAACx/gAAHgJUAAABrArBniQ/8PfcUACpAzd3dwCCgC0xF6Qp2CA4dvqIaOLB29GUJAholYLIy7cQAAAKAABAAAEAAAIAAIAAAgAABAAAAAAAAA==

> <PUBCHEM_IUPAC_OPENEYE_NAME>
[(E)-4-[[4-(3-bromo-4-chloro-anilino)pyrido[3,4-d]pyrimidin-6-yl]amino]-4-oxo-but-2-enyl]-dimethyl-[(3-methyl-5-nitro-imidazol-4-yl)methyl]ammonium;bromide

> <PUBCHEM_IUPAC_CAS_NAME>
[(E)-4-[[4-(3-bromo-4-chloroanilino)-6-pyrido[3,4-d]pyrimidinyl]amino]-4-oxobut-2-enyl]-dimethyl-[(3-methyl-5-nitro-4-imidazolyl)methyl]ammonium;bromide

> <PUBCHEM_IUPAC_NAME_MARKUP>
[(<I>E</I>)-4-[[4-(3-bromo-4-chloroanilino)pyrido[3,4-d]pyrimidin-6-yl]amino]-4-oxobut-2-enyl]-dimethyl-[(3-methyl-5-nitroimidazol-4-yl)methyl]azanium;bromide

> <PUBCHEM_IUPAC_NAME>
[(E)-4-[[4-(3-bromo-4-chloroanilino)pyrido[3,4-d]pyrimidin-6-yl]amino]-4-oxobut-2-enyl]-dimethyl-[(3-methyl-5-nitroimidazol-4-yl)methyl]azanium;bromide

> <PUBCHEM_IUPAC_SYSTEMATIC_NAME>
[(E)-4-[[4-[(3-bromanyl-4-chloranyl-phenyl)amino]pyrido[3,4-d]pyrimidin-6-yl]amino]-4-oxidanylidene-but-2-enyl]-dimethyl-[(3-methyl-5-nitro-imidazol-4-yl)methyl]azanium;bromide

> <PUBCHEM_IUPAC_TRADITIONAL_NAME>
[(E)-4-[[4-(3-bromo-4-chloro-anilino)pyrido[3,4-d]pyrimidin-6-yl]amino]-4-keto-but-2-enyl]-dimethyl-[(3-methyl-5-nitro-imidazol-4-yl)methyl]ammonium;bromide

> <PUBCHEM_IUPAC_INCHI>
InChI=1S/C24H23BrClN9O3.BrH/c1-33-14-30-24(34(37)38)20(33)12-35(2,3)8-4-5-22(36)32-21-10-16-19(11-27-21)28-13-29-23(16)31-15-6-7-18(26)17(25)9-15;/h4-7,9-11,13-14H,8,12H2,1-3H3,(H-,27,28,29,31,32,36);1H/b5-4+;

> <PUBCHEM_IUPAC_INCHIKEY>
WAKIMVYUBWMMHJ-FXRZFVDSSA-N

> <PUBCHEM_EXACT_MASS>
681.00369

> <PUBCHEM_MOLECULAR_FORMULA>
C24H24Br2ClN9O3

> <PUBCHEM_MOLECULAR_WEIGHT>
681.8

> <PUBCHEM_OPENEYE_CAN_SMILES>
CN1C=NC(=C1C[N+](C)(C)CC=CC(=O)NC2=NC=C3C(=C2)C(=NC=N3)NC4=CC(=C(C=C4)Cl)Br)[N+](=O)[O-].[Br-]

> <PUBCHEM_OPENEYE_ISO_SMILES>
CN1C=NC(=C1C[N+](C)(C)C/C=C/C(=O)NC2=NC=C3C(=C2)C(=NC=N3)NC4=CC(=C(C=C4)Cl)Br)[N+](=O)[O-].[Br-]

> <PUBCHEM_CACTVS_TPSA>
143

> <PUBCHEM_MONOISOTOPIC_WEIGHT>
679.00574

> <PUBCHEM_TOTAL_CHARGE>
0

> <PUBCHEM_HEAVY_ATOM_COUNT>
39

> <PUBCHEM_ATOM_DEF_STEREO_COUNT>
0

> <PUBCHEM_ATOM_UDEF_STEREO_COUNT>
0

> <PUBCHEM_BOND_DEF_STEREO_COUNT>
1

> <PUBCHEM_BOND_UDEF_STEREO_COUNT>
0

> <PUBCHEM_ISOTOPIC_ATOM_COUNT>
0

> <PUBCHEM_COMPONENT_COUNT>
2

> <PUBCHEM_CACTVS_TAUTO_COUNT>
9

> <PUBCHEM_COORDINATE_TYPE>
1
5
255

> <PUBCHEM_BONDANNOTATIONS>
12  27  8
12  32  8
14  30  8
14  34  8
15  31  8
15  34  8
20  22  8
27  29  8
28  29  8
28  30  8
28  31  8
30  32  8
33  35  8
33  36  8
35  37  8
36  38  8
37  39  8
38  39  8
8  20  8
8  23  8
9  22  8
9  23  8

$$$$
53252276
  -OEChem-11282412102D

 46 49  0     1  0  0  0  0  0999 V2000
    6.3301    3.0189    0.0000 F   0  0  0  0  0  0  0  0  0  0  0  0
    8.4530   -0.7363    0.0000 O   0  0  0  0  0  0  0  0  0  0  0  0
    4.5981    2.0189    0.0000 N   0  0  0  0  0  0  0  0  0  0  0  0
    2.8660    3.0189    0.0000 N   0  0  0  0  0  0  0  0  0  0  0  0
    5.4641    0.5189    0.0000 N   0  0  0  0  0  0  0  0  0  0  0  0
    8.7260    1.0189    0.0000 N   0  0  0  0  0  0  0  0  0  0  0  0
    5.8301   -2.5199    0.0000 N   0  0  0  0  0  0  0  0  0  0  0  0
    6.8301   -2.5199    0.0000 N   0  0  0  0  0  0  0  0  0  0  0  0
    3.7320    1.5189    0.0000 C   0  0  1  0  0  0  0  0  0  0  0  0
    2.8660    2.0189    0.0000 C   0  0  2  0  0  0  0  0  0  0  0  0
    3.7320    0.5189    0.0000 C   0  0  0  0  0  0  0  0  0  0  0  0
    2.0000    1.5189    0.0000 C   0  0  0  0  0  0  0  0  0  0  0  0
    2.8660    0.0189    0.0000 C   0  0  0  0  0  0  0  0  0  0  0  0
    2.0000    0.5189    0.0000 C   0  0  0  0  0  0  0  0  0  0  0  0
    5.4641    1.5189    0.0000 C   0  0  0  0  0  0  0  0  0  0  0  0
    7.1962    1.5189    0.0000 C   0  0  0  0  0  0  0  0  0  0  0  0
    6.3301    2.0189    0.0000 C   0  0  0  0  0  0  0  0  0  0  0  0
    7.1962    0.5189    0.0000 C   0  0  0  0  0  0  0  0  0  0  0  0
    6.3301    0.0189    0.0000 C   0  0  0  0  0  0  0  0  0  0  0  0
    8.1424    1.8237    0.0000 C   0  0  0  0  0  0  0  0  0  0  0  0
    8.1424    0.2142    0.0000 C   0  0  0  0  0  0  0  0  0  0  0  0
    6.3301   -0.9811    0.0000 C   0  0  0  0  0  0  0  0  0  0  0  0
    5.5211   -1.5689    0.0000 C   0  0  0  0  0  0  0  0  0  0  0  0
    7.1391   -1.5689    0.0000 C   0  0  0  0  0  0  0  0  0  0  0  0
    5.2423   -3.3289    0.0000 C   0  0  0  0  0  0  0  0  0  0  0  0
    4.2690    1.2089    0.0000 H   0  0  0  0  0  0  0  0  0  0  0  0
    2.3291    2.3289    0.0000 H   0  0  0  0  0  0  0  0  0  0  0  0
    3.9441   -0.0637    0.0000 H   0  0  0  0  0  0  0  0  0  0  0  0
    4.3426    0.6266    0.0000 H   0  0  0  0  0  0  0  0  0  0  0  0
    1.7880    2.1015    0.0000 H   0  0  0  0  0  0  0  0  0  0  0  0
    1.3894    1.4113    0.0000 H   0  0  0  0  0  0  0  0  0  0  0  0
    2.4675   -0.4560    0.0000 H   0  0  0  0  0  0  0  0  0  0  0  0
    3.2646   -0.4560    0.0000 H   0  0  0  0  0  0  0  0  0  0  0  0
    1.3894    0.6266    0.0000 H   0  0  0  0  0  0  0  0  0  0  0  0
    1.7880   -0.0637    0.0000 H   0  0  0  0  0  0  0  0  0  0  0  0
    4.5981    2.6389    0.0000 H   0  0  0  0  0  0  0  0  0  0  0  0
    2.3291    3.3289    0.0000 H   0  0  0  0  0  0  0  0  0  0  0  0
    3.4030    3.3289    0.0000 H   0  0  0  0  0  0  0  0  0  0  0  0
    8.6798    2.1329    0.0000 H   0  0  0  0  0  0  0  0  0  0  0  0
    7.8913    2.3906    0.0000 H   0  0  0  0  0  0  0  0  0  0  0  0
    9.3460    1.0189    0.0000 H   0  0  0  0  0  0  0  0  0  0  0  0
    4.9315   -1.3773    0.0000 H   0  0  0  0  0  0  0  0  0  0  0  0
    7.7288   -1.3773    0.0000 H   0  0  0  0  0  0  0  0  0  0  0  0
    4.7408   -2.9645    0.0000 H   0  0  0  0  0  0  0  0  0  0  0  0
    4.8779   -3.8305    0.0000 H   0  0  0  0  0  0  0  0  0  0  0  0
    5.7439   -3.6934    0.0000 H   0  0  0  0  0  0  0  0  0  0  0  0
  1 17  1  0  0  0  0
  2 21  2  0  0  0  0
  9  3  1  6  0  0  0
  3 15  1  0  0  0  0
  3 36  1  0  0  0  0
 10  4  1  6  0  0  0
  4 37  1  0  0  0  0
  4 38  1  0  0  0  0
  5 15  1  0  0  0  0
  5 19  2  0  0  0  0
  6 20  1  0  0  0  0
  6 21  1  0  0  0  0
  6 41  1  0  0  0  0
  7  8  1  0  0  0  0
  7 23  1  0  0  0  0
  7 25  1  0  0  0  0
  8 24  2  0  0  0  0
  9 10  1  0  0  0  0
  9 11  1  0  0  0  0
  9 26  1  0  0  0  0
 10 12  1  0  0  0  0
 10 27  1  0  0  0  0
 11 13  1  0  0  0  0
 11 28  1  0  0  0  0
 11 29  1  0  0  0  0
 12 14  1  0  0  0  0
 12 30  1  0  0  0  0
 12 31  1  0  0  0  0
 13 14  1  0  0  0  0
 13 32  1  0  0  0  0
 13 33  1  0  0  0  0
 14 34  1  0  0  0  0
 14 35  1  0  0  0  0
 15 17  2  0  0  0  0
 16 17  1  0  0  0  0
 16 18  2  0  0  0  0
 16 20  1  0  0  0  0
 18 19  1  0  0  0  0
 18 21  1  0  0  0  0
 19 22  1  0  0  0  0
 20 39  1  0  0  0  0
 20 40  1  0  0  0  0
 22 23  2  0  0  0  0
 22 24  1  0  0  0  0
 23 42  1  0  0  0  0
 24 43  1  0  0  0  0
 25 44  1  0  0  0  0
 25 45  1  0  0  0  0
 25 46  1  0  0  0  0
M  END
> <PUBCHEM_COMPOUND_CID>
53252276

> <PUBCHEM_COMPOUND_CANONICALIZED>
1

> <PUBCHEM_CACTVS_COMPLEXITY>
508

> <PUBCHEM_CACTVS_HBOND_ACCEPTOR>
6

> <PUBCHEM_CACTVS_HBOND_DONOR>
3

> <PUBCHEM_CACTVS_ROTATABLE_BOND>
3

> <PUBCHEM_CACTVS_SUBSKEYS>
AAADceB7oQAAAAAAAAAAAAAAAAAAAWLAAAA8QAAAAAAAAFgB4AAAHwAYAAAADCjBngwvsJLIEACqAxd3dACShCk1gCAR2KEoRNiIYPrA3dGUpYhongLIyWccgUAOgAAAAAAAAAAAAAAAAAAAQAAAAAAAAA==

> <PUBCHEM_IUPAC_OPENEYE_NAME>
6-[[(1R,2S)-2-aminocyclohexyl]amino]-7-fluoro-4-(1-methylpyrazol-4-yl)-1,2-dihydropyrrolo[3,4-c]pyridin-3-one

> <PUBCHEM_IUPAC_CAS_NAME>
6-[[(1R,2S)-2-aminocyclohexyl]amino]-7-fluoro-4-(1-methyl-4-pyrazolyl)-1,2-dihydropyrrolo[3,4-c]pyridin-3-one

> <PUBCHEM_IUPAC_NAME_MARKUP>
6-[[(1<I>R</I>,2<I>S</I>)-2-aminocyclohexyl]amino]-7-fluoro-4-(1-methylpyrazol-4-yl)-1,2-dihydropyrrolo[3,4-c]pyridin-3-one

> <PUBCHEM_IUPAC_NAME>
6-[[(1R,2S)-2-aminocyclohexyl]amino]-7-fluoro-4-(1-methylpyrazol-4-yl)-1,2-dihydropyrrolo[3,4-c]pyridin-3-one

> <PUBCHEM_IUPAC_SYSTEMATIC_NAME>
6-[[(1R,2S)-2-azanylcyclohexyl]amino]-7-fluoranyl-4-(1-methylpyrazol-4-yl)-1,2-dihydropyrrolo[3,4-c]pyridin-3-one

> <PUBCHEM_IUPAC_TRADITIONAL_NAME>
6-[[(1R,2S)-2-aminocyclohexyl]amino]-7-fluoro-4-(1-methylpyrazol-4-yl)-1,2-dihydropyrrolo[3,4-c]pyridin-3-one

> <PUBCHEM_IUPAC_INCHI>
InChI=1S/C17H21FN6O/c1-24-8-9(6-21-24)15-13-10(7-20-17(13)25)14(18)16(23-15)22-12-5-3-2-4-11(12)19/h6,8,11-12H,2-5,7,19H2,1H3,(H,20,25)(H,22,23)/t11-,12+/m0/s1

> <PUBCHEM_IUPAC_INCHIKEY>
MJHOMTRKVMKCNE-NWDGAFQWSA-N

> <PUBCHEM_XLOGP3_AA>
0.5

> <PUBCHEM_EXACT_MASS>
344.17608748

> <PUBCHEM_MOLECULAR_FORMULA>
C17H21FN6O

> <PUBCHEM_MOLECULAR_WEIGHT>
344.4

> <PUBCHEM_OPENEYE_CAN_SMILES>
CN1C=C(C=N1)C2=NC(=C(C3=C2C(=O)NC3)F)NC4CCCCC4N

> <PUBCHEM_OPENEYE_ISO_SMILES>
CN1C=C(C=N1)C2=NC(=C(C3=C2C(=O)NC3)F)N[C@@H]4CCCC[C@@H]4N

> <PUBCHEM_CACTVS_TPSA>
97.9

> <PUBCHEM_MONOISOTOPIC_WEIGHT>
344.17608748

> <PUBCHEM_TOTAL_CHARGE>
0

> <PUBCHEM_HEAVY_ATOM_COUNT>
25

> <PUBCHEM_ATOM_DEF_STEREO_COUNT>
2

> <PUBCHEM_ATOM_UDEF_STEREO_COUNT>
0

> <PUBCHEM_BOND_DEF_STEREO_COUNT>
0

> <PUBCHEM_BOND_UDEF_STEREO_COUNT>
0

> <PUBCHEM_ISOTOPIC_ATOM_COUNT>
0

> <PUBCHEM_COMPONENT_COUNT>
1

> <PUBCHEM_CACTVS_TAUTO_COUNT>
7

> <PUBCHEM_COORDINATE_TYPE>
1
5
255

> <PUBCHEM_BONDANNOTATIONS>
15  17  8
16  17  8
16  18  8
18  19  8
22  23  8
22  24  8
9  3  6
10  4  6
5  15  8
5  19  8
7  23  8
7  8  8
8  24  8

$$$$
53380437
  -OEChem-11282412102D

 63 68  0     0  0  0  0  0  0999 V2000
    3.7044    2.0234    0.0000 F   0  0  0  0  0  0  0  0  0  0  0  0
    2.0000    4.0470    0.0000 F   0  0  0  0  0  0  0  0  0  0  0  0
    3.1441    4.8783    0.0000 F   0  0  0  0  0  0  0  0  0  0  0  0
    2.8312    2.9029    0.0000 F   0  0  0  0  0  0  0  0  0  0  0  0
    5.0505    0.9334    0.0000 O   0  0  0  0  0  0  0  0  0  0  0  0
    9.6306    1.0848    0.0000 N   0  0  0  0  0  0  0  0  0  0  0  0
   11.6151    0.0546    0.0000 N   0  0  0  0  0  0  0  0  0  0  0  0
    6.6675    1.5542    0.0000 N   0  0  0  0  0  0  0  0  0  0  0  0
   12.6151    0.0546    0.0000 N   0  0  0  0  0  0  0  0  0  0  0  0
   11.6273    3.4404    0.0000 N   0  0  0  0  0  0  0  0  0  0  0  0
   11.2491   -2.9842    0.0000 N   0  0  0  0  0  0  0  0  0  0  0  0
   13.9274   -4.2890    0.0000 N   0  0  0  0  0  0  0  0  0  0  0  0
   12.1151   -4.4842    0.0000 N   0  0  0  0  0  0  0  0  0  0  0  0
    4.6047    4.5113    0.0000 N   0  0  0  0  0  0  0  0  0  0  0  0
   11.0274    0.8636    0.0000 C   0  0  0  0  0  0  0  0  0  0  0  0
   10.2183    0.2758    0.0000 C   0  0  0  0  0  0  0  0  0  0  0  0
   10.4396    1.6726    0.0000 C   0  0  0  0  0  0  0  0  0  0  0  0
    8.6429    1.2413    0.0000 C   0  0  0  0  0  0  0  0  0  0  0  0
    8.0136    0.4641    0.0000 C   0  0  0  0  0  0  0  0  0  0  0  0
    8.2845    2.1749    0.0000 C   0  0  0  0  0  0  0  0  0  0  0  0
   11.8364    1.4514    0.0000 C   0  0  0  0  0  0  0  0  0  0  0  0
    7.0259    0.6206    0.0000 C   0  0  0  0  0  0  0  0  0  0  0  0
    7.2968    2.3313    0.0000 C   0  0  0  0  0  0  0  0  0  0  0  0
   11.3061   -0.8965    0.0000 C   0  0  0  0  0  0  0  0  0  0  0  0
   11.7318    2.4459    0.0000 C   0  0  0  0  0  0  0  0  0  0  0  0
   12.1151   -1.4842    0.0000 C   0  0  0  0  0  0  0  0  0  0  0  0
    5.6798    1.7106    0.0000 C   0  0  0  0  0  0  0  0  0  0  0  0
   12.9242   -0.8965    0.0000 C   0  0  0  0  0  0  0  0  0  0  0  0
   12.1151   -2.4842    0.0000 C   0  0  0  0  0  0  0  0  0  0  0  0
    5.3214    2.6442    0.0000 C   0  0  0  0  0  0  0  0  0  0  0  0
   12.9812   -2.9842    0.0000 C   0  0  0  0  0  0  0  0  0  0  0  0
    4.3337    2.8006    0.0000 C   0  0  0  0  0  0  0  0  0  0  0  0
    5.9508    3.4213    0.0000 C   0  0  0  0  0  0  0  0  0  0  0  0
   12.9812   -3.9842    0.0000 C   0  0  0  0  0  0  0  0  0  0  0  0
   13.9274   -2.6795    0.0000 C   0  0  0  0  0  0  0  0  0  0  0  0
    3.9754    3.7342    0.0000 C   0  0  0  0  0  0  0  0  0  0  0  0
    5.5924    4.3549    0.0000 C   0  0  0  0  0  0  0  0  0  0  0  0
   11.2491   -3.9842    0.0000 C   0  0  0  0  0  0  0  0  0  0  0  0
   14.5110   -3.4842    0.0000 C   0  0  0  0  0  0  0  0  0  0  0  0
    2.9877    3.8906    0.0000 C   0  0  0  0  0  0  0  0  0  0  0  0
    9.7168   -0.0886    0.0000 H   0  0  0  0  0  0  0  0  0  0  0  0
   10.5828   -0.2258    0.0000 H   0  0  0  0  0  0  0  0  0  0  0  0
   10.9412    2.0371    0.0000 H   0  0  0  0  0  0  0  0  0  0  0  0
   10.0751    2.1742    0.0000 H   0  0  0  0  0  0  0  0  0  0  0  0
    9.0330    1.7231    0.0000 H   0  0  0  0  0  0  0  0  0  0  0  0
    7.8117   -0.1221    0.0000 H   0  0  0  0  0  0  0  0  0  0  0  0
    8.5558    0.1636    0.0000 H   0  0  0  0  0  0  0  0  0  0  0  0
    8.8931    2.2932    0.0000 H   0  0  0  0  0  0  0  0  0  0  0  0
    8.2737    2.7948    0.0000 H   0  0  0  0  0  0  0  0  0  0  0  0
   12.1082    0.8941    0.0000 H   0  0  0  0  0  0  0  0  0  0  0  0
   12.4324    1.6223    0.0000 H   0  0  0  0  0  0  0  0  0  0  0  0
    6.4172    0.5023    0.0000 H   0  0  0  0  0  0  0  0  0  0  0  0
    7.0367    0.0007    0.0000 H   0  0  0  0  0  0  0  0  0  0  0  0
    7.4987    2.9175    0.0000 H   0  0  0  0  0  0  0  0  0  0  0  0
    6.7546    2.6319    0.0000 H   0  0  0  0  0  0  0  0  0  0  0  0
   10.7165   -1.0880    0.0000 H   0  0  0  0  0  0  0  0  0  0  0  0
   13.5138   -1.0880    0.0000 H   0  0  0  0  0  0  0  0  0  0  0  0
    6.5631    3.3243    0.0000 H   0  0  0  0  0  0  0  0  0  0  0  0
   14.1200   -2.0902    0.0000 H   0  0  0  0  0  0  0  0  0  0  0  0
    5.9826    4.8367    0.0000 H   0  0  0  0  0  0  0  0  0  0  0  0
   10.7122   -4.2942    0.0000 H   0  0  0  0  0  0  0  0  0  0  0  0
   14.1200   -4.8783    0.0000 H   0  0  0  0  0  0  0  0  0  0  0  0
   15.1310   -3.4842    0.0000 H   0  0  0  0  0  0  0  0  0  0  0  0
  1 32  1  0  0  0  0
  2 40  1  0  0  0  0
  3 40  1  0  0  0  0
  4 40  1  0  0  0  0
  5 27  2  0  0  0  0
  6 16  1  0  0  0  0
  6 17  1  0  0  0  0
  6 18  1  0  0  0  0
  7  9  1  0  0  0  0
  7 15  1  0  0  0  0
  7 24  1  0  0  0  0
  8 22  1  0  0  0  0
  8 23  1  0  0  0  0
  8 27  1  0  0  0  0
  9 28  2  0  0  0  0
 10 25  3  0  0  0  0
 11 29  1  0  0  0  0
 11 38  2  0  0  0  0
 12 34  1  0  0  0  0
 12 39  1  0  0  0  0
 12 62  1  0  0  0  0
 13 34  2  0  0  0  0
 13 38  1  0  0  0  0
 14 36  2  0  0  0  0
 14 37  1  0  0  0  0
 15 16  1  0  0  0  0
 15 17  1  0  0  0  0
 15 21  1  0  0  0  0
 16 41  1  0  0  0  0
 16 42  1  0  0  0  0
 17 43  1  0  0  0  0
 17 44  1  0  0  0  0
 18 19  1  0  0  0  0
 18 20  1  0  0  0  0
 18 45  1  0  0  0  0
 19 22  1  0  0  0  0
 19 46  1  0  0  0  0
 19 47  1  0  0  0  0
 20 23  1  0  0  0  0
 20 48  1  0  0  0  0
 20 49  1  0  0  0  0
 21 25  1  0  0  0  0
 21 50  1  0  0  0  0
 21 51  1  0  0  0  0
 22 52  1  0  0  0  0
 22 53  1  0  0  0  0
 23 54  1  0  0  0  0
 23 55  1  0  0  0  0
 24 26  2  0  0  0  0
 24 56  1  0  0  0  0
 26 28  1  0  0  0  0
 26 29  1  0  0  0  0
 27 30  1  0  0  0  0
 28 57  1  0  0  0  0
 29 31  2  0  0  0  0
 30 32  2  0  0  0  0
 30 33  1  0  0  0  0
 31 34  1  0  0  0  0
 31 35  1  0  0  0  0
 32 36  1  0  0  0  0
 33 37  2  0  0  0  0
 33 58  1  0  0  0  0
 35 39  2  0  0  0  0
 35 59  1  0  0  0  0
 36 40  1  0  0  0  0
 37 60  1  0  0  0  0
 38 61  1  0  0  0  0
 39 63  1  0  0  0  0
M  END
> <PUBCHEM_COMPOUND_CID>
53380437

> <PUBCHEM_COMPOUND_CANONICALIZED>
1

> <PUBCHEM_CACTVS_COMPLEXITY>
977

> <PUBCHEM_CACTVS_HBOND_ACCEPTOR>
11

> <PUBCHEM_CACTVS_HBOND_DONOR>
1

> <PUBCHEM_CACTVS_ROTATABLE_BOND>
5

> <PUBCHEM_CACTVS_SUBSKEYS>
AAADceB74cAAAAAAAAAAAAAAAABYAWLAAAAsWLAAAAAAAFgB/gAAHwAYAAAADKjBnxw9sN/JkAC6Bzd3dACShCm1gqAZ2aE4ZNiI6PLA3dGUpQhongLIya8cAAAOAAAAAAAAAAAAAAAAAAAAAAAAAAAAAA==

> <PUBCHEM_IUPAC_OPENEYE_NAME>
2-[1-[1-[3-fluoro-2-(trifluoromethyl)pyridine-4-carbonyl]-4-piperidyl]-3-[4-(7H-pyrrolo[2,3-d]pyrimidin-4-yl)pyrazol-1-yl]azetidin-3-yl]acetonitrile

> <PUBCHEM_IUPAC_CAS_NAME>
2-[1-[1-[[3-fluoro-2-(trifluoromethyl)-4-pyridinyl]-oxomethyl]-4-piperidinyl]-3-[4-(7H-pyrrolo[2,3-d]pyrimidin-4-yl)-1-pyrazolyl]-3-azetidinyl]acetonitrile

> <PUBCHEM_IUPAC_NAME_MARKUP>
2-[1-[1-[3-fluoro-2-(trifluoromethyl)pyridine-4-carbonyl]piperidin-4-yl]-3-[4-(7<I>H</I>-pyrrolo[2,3-d]pyrimidin-4-yl)pyrazol-1-yl]azetidin-3-yl]acetonitrile

> <PUBCHEM_IUPAC_NAME>
2-[1-[1-[3-fluoro-2-(trifluoromethyl)pyridine-4-carbonyl]piperidin-4-yl]-3-[4-(7H-pyrrolo[2,3-d]pyrimidin-4-yl)pyrazol-1-yl]azetidin-3-yl]acetonitrile

> <PUBCHEM_IUPAC_SYSTEMATIC_NAME>
2-[1-[1-[3-fluoranyl-2-(trifluoromethyl)pyridin-4-yl]carbonylpiperidin-4-yl]-3-[4-(7H-pyrrolo[2,3-d]pyrimidin-4-yl)pyrazol-1-yl]azetidin-3-yl]ethanenitrile

> <PUBCHEM_IUPAC_TRADITIONAL_NAME>
2-[1-[1-[3-fluoro-2-(trifluoromethyl)isonicotinoyl]-4-piperidyl]-3-[4-(7H-pyrrolo[2,3-d]pyrimidin-4-yl)pyrazol-1-yl]azetidin-3-yl]acetonitrile

> <PUBCHEM_IUPAC_INCHI>
InChI=1S/C26H23F4N9O/c27-20-18(1-7-32-22(20)26(28,29)30)24(40)37-9-3-17(4-10-37)38-13-25(14-38,5-6-31)39-12-16(11-36-39)21-19-2-8-33-23(19)35-15-34-21/h1-2,7-8,11-12,15,17H,3-5,9-10,13-14H2,(H,33,34,35)

> <PUBCHEM_IUPAC_INCHIKEY>
KTBSXLIQKWEBRB-UHFFFAOYSA-N

> <PUBCHEM_XLOGP3_AA>
1.6

> <PUBCHEM_EXACT_MASS>
553.19616904

> <PUBCHEM_MOLECULAR_FORMULA>
C26H23F4N9O

> <PUBCHEM_MOLECULAR_WEIGHT>
553.5

> <PUBCHEM_OPENEYE_CAN_SMILES>
C1CN(CCC1N2CC(C2)(CC#N)N3C=C(C=N3)C4=C5C=CNC5=NC=N4)C(=O)C6=C(C(=NC=C6)C(F)(F)F)F

> <PUBCHEM_OPENEYE_ISO_SMILES>
C1CN(CCC1N2CC(C2)(CC#N)N3C=C(C=N3)C4=C5C=CNC5=NC=N4)C(=O)C6=C(C(=NC=C6)C(F)(F)F)F

> <PUBCHEM_CACTVS_TPSA>
120

> <PUBCHEM_MONOISOTOPIC_WEIGHT>
553.19616904

> <PUBCHEM_TOTAL_CHARGE>
0

> <PUBCHEM_HEAVY_ATOM_COUNT>
40

> <PUBCHEM_ATOM_DEF_STEREO_COUNT>
0

> <PUBCHEM_ATOM_UDEF_STEREO_COUNT>
0

> <PUBCHEM_BOND_DEF_STEREO_COUNT>
0

> <PUBCHEM_BOND_UDEF_STEREO_COUNT>
0

> <PUBCHEM_ISOTOPIC_ATOM_COUNT>
0

> <PUBCHEM_COMPONENT_COUNT>
1

> <PUBCHEM_CACTVS_TAUTO_COUNT>
-1

> <PUBCHEM_COORDINATE_TYPE>
1
5
255

> <PUBCHEM_BONDANNOTATIONS>
11  29  8
11  38  8
12  34  8
12  39  8
13  34  8
13  38  8
14  36  8
14  37  8
24  26  8
26  28  8
29  31  8
30  32  8
30  33  8
31  34  8
31  35  8
32  36  8
33  37  8
35  39  8
7  24  8
7  9  8
9  28  8

$$$$
54759275
  -OEChem-11282412102D

 59 63  0     1  0  0  0  0  0999 V2000
    6.1648    2.8372    0.0000 O   0  0  0  0  0  0  0  0  0  0  0  0
    7.0308    3.3372    0.0000 O   0  0  0  0  0  0  0  0  0  0  0  0
    2.7443    0.7915    0.0000 N   0  0  3  0  0  0  0  0  0  0  0  0
    5.2988    1.3372    0.0000 N   0  0  0  0  0  0  0  0  0  0  0  0
    7.0308    1.3372    0.0000 N   0  0  0  0  0  0  0  0  0  0  0  0
   10.5229    3.3718    0.0000 N   0  0  0  0  0  0  0  0  0  0  0  0
   10.5113    0.3026    0.0000 N   0  0  0  0  0  0  0  0  0  0  0  0
   11.4289    1.8163    0.0000 N   0  0  0  0  0  0  0  0  0  0  0  0
    4.2161    0.1347    0.0000 C   0  0  2  0  0  0  0  0  0  0  0  0
    3.7161    1.0008    0.0000 C   0  0  2  0  0  0  0  0  0  0  0  0
    3.5490   -0.6023    0.0000 C   0  0  0  0  0  0  0  0  0  0  0  0
    5.1943    0.3426    0.0000 C   0  0  0  0  0  0  0  0  0  0  0  0
    4.3852    1.7439    0.0000 C   0  0  0  0  0  0  0  0  0  0  0  0
    2.6412   -0.1972    0.0000 C   0  0  0  0  0  0  0  0  0  0  0  0
    2.0000    1.4594    0.0000 C   0  0  0  0  0  0  0  0  0  0  0  0
    6.1648    1.8372    0.0000 C   0  0  0  0  0  0  0  0  0  0  0  0
    7.8969    1.8372    0.0000 C   0  0  0  0  0  0  0  0  0  0  0  0
    7.8969    2.8372    0.0000 C   0  0  0  0  0  0  0  0  0  0  0  0
    8.7629    1.3372    0.0000 C   0  0  0  0  0  0  0  0  0  0  0  0
    9.6289    1.8372    0.0000 C   0  0  0  0  0  0  0  0  0  0  0  0
    8.7629    3.3372    0.0000 C   0  0  0  0  0  0  0  0  0  0  0  0
    9.6289    2.8372    0.0000 C   0  0  0  0  0  0  0  0  0  0  0  0
   10.5229    1.3025    0.0000 C   0  0  0  0  0  0  0  0  0  0  0  0
    7.0308    4.3372    0.0000 C   0  0  0  0  0  0  0  0  0  0  0  0
   11.4289    2.8580    0.0000 C   0  0  0  0  0  0  0  0  0  0  0  0
   11.3715   -0.2074    0.0000 C   0  0  0  0  0  0  0  0  0  0  0  0
   11.3599   -1.2074    0.0000 C   0  0  0  0  0  0  0  0  0  0  0  0
   12.2432    0.2825    0.0000 C   0  0  0  0  0  0  0  0  0  0  0  0
   12.2201   -1.7173    0.0000 C   0  0  0  0  0  0  0  0  0  0  0  0
   13.1034   -0.2274    0.0000 C   0  0  0  0  0  0  0  0  0  0  0  0
   13.0919   -1.2274    0.0000 C   0  0  0  0  0  0  0  0  0  0  0  0
   12.2085   -2.7173    0.0000 C   0  0  0  0  0  0  0  0  0  0  0  0
   12.1970   -3.7172    0.0000 C   0  0  0  0  0  0  0  0  0  0  0  0
    4.6402   -0.6019    0.0000 H   0  0  0  0  0  0  0  0  0  0  0  0
    3.2902    1.7363    0.0000 H   0  0  0  0  0  0  0  0  0  0  0  0
    3.2383   -1.1388    0.0000 H   0  0  0  0  0  0  0  0  0  0  0  0
    4.0499   -0.9677    0.0000 H   0  0  0  0  0  0  0  0  0  0  0  0
    5.2591   -0.2740    0.0000 H   0  0  0  0  0  0  0  0  0  0  0  0
    5.8143    0.3426    0.0000 H   0  0  0  0  0  0  0  0  0  0  0  0
    4.6952    2.2808    0.0000 H   0  0  0  0  0  0  0  0  0  0  0  0
    3.8837    2.1083    0.0000 H   0  0  0  0  0  0  0  0  0  0  0  0
    2.0348   -0.0684    0.0000 H   0  0  0  0  0  0  0  0  0  0  0  0
    2.4495   -0.7868    0.0000 H   0  0  0  0  0  0  0  0  0  0  0  0
    2.4141    1.9209    0.0000 H   0  0  0  0  0  0  0  0  0  0  0  0
    1.5385    1.8734    0.0000 H   0  0  0  0  0  0  0  0  0  0  0  0
    1.5859    0.9979    0.0000 H   0  0  0  0  0  0  0  0  0  0  0  0
    7.0308    0.7172    0.0000 H   0  0  0  0  0  0  0  0  0  0  0  0
    8.7629    0.7172    0.0000 H   0  0  0  0  0  0  0  0  0  0  0  0
    8.7629    3.9572    0.0000 H   0  0  0  0  0  0  0  0  0  0  0  0
    9.9708   -0.0012    0.0000 H   0  0  0  0  0  0  0  0  0  0  0  0
    7.6508    4.3372    0.0000 H   0  0  0  0  0  0  0  0  0  0  0  0
    7.0308    4.9572    0.0000 H   0  0  0  0  0  0  0  0  0  0  0  0
    6.4108    4.3372    0.0000 H   0  0  0  0  0  0  0  0  0  0  0  0
   11.9647    3.1700    0.0000 H   0  0  0  0  0  0  0  0  0  0  0  0
   10.8194   -1.5111    0.0000 H   0  0  0  0  0  0  0  0  0  0  0  0
   12.2504    0.9025    0.0000 H   0  0  0  0  0  0  0  0  0  0  0  0
   13.6439    0.0763    0.0000 H   0  0  0  0  0  0  0  0  0  0  0  0
   13.6252   -1.5436    0.0000 H   0  0  0  0  0  0  0  0  0  0  0  0
   12.1898   -4.3372    0.0000 H   0  0  0  0  0  0  0  0  0  0  0  0
  1 16  2  0  0  0  0
  2 18  1  0  0  0  0
  2 24  1  0  0  0  0
  3 10  1  0  0  0  0
  3 14  1  0  0  0  0
  3 15  1  0  0  0  0
  4 12  1  0  0  0  0
  4 13  1  0  0  0  0
  4 16  1  0  0  0  0
  5 16  1  0  0  0  0
  5 17  1  0  0  0  0
  5 47  1  0  0  0  0
  6 22  1  0  0  0  0
  6 25  2  0  0  0  0
  7 23  1  0  0  0  0
  7 26  1  0  0  0  0
  7 50  1  0  0  0  0
  8 23  2  0  0  0  0
  8 25  1  0  0  0  0
  9 10  1  0  0  0  0
  9 11  1  0  0  0  0
  9 12  1  0  0  0  0
  9 34  1  6  0  0  0
 10 13  1  0  0  0  0
 10 35  1  6  0  0  0
 11 14  1  0  0  0  0
 11 36  1  0  0  0  0
 11 37  1  0  0  0  0
 12 38  1  0  0  0  0
 12 39  1  0  0  0  0
 13 40  1  0  0  0  0
 13 41  1  0  0  0  0
 14 42  1  0  0  0  0
 14 43  1  0  0  0  0
 15 44  1  0  0  0  0
 15 45  1  0  0  0  0
 15 46  1  0  0  0  0
 17 18  2  0  0  0  0
 17 19  1  0  0  0  0
 18 21  1  0  0  0  0
 19 20  2  0  0  0  0
 19 48  1  0  0  0  0
 20 22  1  0  0  0  0
 20 23  1  0  0  0  0
 21 22  2  0  0  0  0
 21 49  1  0  0  0  0
 24 51  1  0  0  0  0
 24 52  1  0  0  0  0
 24 53  1  0  0  0  0
 25 54  1  0  0  0  0
 26 27  1  0  0  0  0
 26 28  2  0  0  0  0
 27 29  2  0  0  0  0
 27 55  1  0  0  0  0
 28 30  1  0  0  0  0
 28 56  1  0  0  0  0
 29 31  1  0  0  0  0
 29 32  1  0  0  0  0
 30 31  2  0  0  0  0
 30 57  1  0  0  0  0
 31 58  1  0  0  0  0
 32 33  3  0  0  0  0
 33 59  1  0  0  0  0
M  END
> <PUBCHEM_COMPOUND_CID>
54759275

> <PUBCHEM_COMPOUND_CANONICALIZED>
1

> <PUBCHEM_CACTVS_COMPLEXITY>
754

> <PUBCHEM_CACTVS_HBOND_ACCEPTOR>
6

> <PUBCHEM_CACTVS_HBOND_DONOR>
2

> <PUBCHEM_CACTVS_ROTATABLE_BOND>
5

> <PUBCHEM_CACTVS_SUBSKEYS>
AAADceB7sAAAAAAAAAAAAAAAAAAAAWLAAAA8YIAAAAAWAACx9AAAHgAQAAAADSzBngY39vfIFADoGyZjdAiCiCkxIqAJ2CA/bJiObuLE+duVNChu1hvY6CeQ0AMOIACAQgACEABAAQCEAAQgAAAAAAAAAA==

> <PUBCHEM_IUPAC_OPENEYE_NAME>
(3aR,6aR)-N-[4-(3-ethynylanilino)-7-methoxy-quinazolin-6-yl]-1-methyl-2,3,3a,4,6,6a-hexahydropyrrolo[2,3-c]pyrrole-5-carboxamide

> <PUBCHEM_IUPAC_CAS_NAME>
(3aR,6aR)-N-[4-(3-ethynylanilino)-7-methoxy-6-quinazolinyl]-1-methyl-2,3,3a,4,6,6a-hexahydropyrrolo[2,3-c]pyrrole-5-carboxamide

> <PUBCHEM_IUPAC_NAME_MARKUP>
(3<I>a</I><I>R</I>,6<I>a</I><I>R</I>)-<I>N</I>-[4-(3-ethynylanilino)-7-methoxyquinazolin-6-yl]-1-methyl-2,3,3<I>a</I>,4,6,6<I>a</I>-hexahydropyrrolo[2,3-c]pyrrole-5-carboxamide

> <PUBCHEM_IUPAC_NAME>
(3aR,6aR)-N-[4-(3-ethynylanilino)-7-methoxyquinazolin-6-yl]-1-methyl-2,3,3a,4,6,6a-hexahydropyrrolo[2,3-c]pyrrole-5-carboxamide

> <PUBCHEM_IUPAC_SYSTEMATIC_NAME>
(3aR,6aR)-N-[4-[(3-ethynylphenyl)amino]-7-methoxy-quinazolin-6-yl]-1-methyl-2,3,3a,4,6,6a-hexahydropyrrolo[2,3-c]pyrrole-5-carboxamide

> <PUBCHEM_IUPAC_TRADITIONAL_NAME>
(3aR,6aR)-N-[4-(3-ethynylanilino)-7-methoxy-quinazolin-6-yl]-1-methyl-2,3,3a,4,6,6a-hexahydropyrrolo[2,3-c]pyrrole-5-carboxamide

> <PUBCHEM_IUPAC_INCHI>
InChI=1S/C25H26N6O2/c1-4-16-6-5-7-18(10-16)28-24-19-11-21(23(33-3)12-20(19)26-15-27-24)29-25(32)31-13-17-8-9-30(2)22(17)14-31/h1,5-7,10-12,15,17,22H,8-9,13-14H2,2-3H3,(H,29,32)(H,26,27,28)/t17-,22+/m1/s1

> <PUBCHEM_IUPAC_INCHIKEY>
FSXCKIBROURMFT-VGSWGCGISA-N

> <PUBCHEM_XLOGP3_AA>
3.1

> <PUBCHEM_EXACT_MASS>
442.21172409

> <PUBCHEM_MOLECULAR_FORMULA>
C25H26N6O2

> <PUBCHEM_MOLECULAR_WEIGHT>
442.5

> <PUBCHEM_OPENEYE_CAN_SMILES>
CN1CCC2C1CN(C2)C(=O)NC3=C(C=C4C(=C3)C(=NC=N4)NC5=CC=CC(=C5)C#C)OC

> <PUBCHEM_OPENEYE_ISO_SMILES>
CN1CC[C@H]2[C@@H]1CN(C2)C(=O)NC3=C(C=C4C(=C3)C(=NC=N4)NC5=CC=CC(=C5)C#C)OC

> <PUBCHEM_CACTVS_TPSA>
82.6

> <PUBCHEM_MONOISOTOPIC_WEIGHT>
442.21172409

> <PUBCHEM_TOTAL_CHARGE>
0

> <PUBCHEM_HEAVY_ATOM_COUNT>
33

> <PUBCHEM_ATOM_DEF_STEREO_COUNT>
2

> <PUBCHEM_ATOM_UDEF_STEREO_COUNT>
0

> <PUBCHEM_BOND_DEF_STEREO_COUNT>
0

> <PUBCHEM_BOND_UDEF_STEREO_COUNT>
0

> <PUBCHEM_ISOTOPIC_ATOM_COUNT>
0

> <PUBCHEM_COMPONENT_COUNT>
1

> <PUBCHEM_CACTVS_TAUTO_COUNT>
-1

> <PUBCHEM_COORDINATE_TYPE>
1
5
255

> <PUBCHEM_BONDANNOTATIONS>
10  35  6
17  18  8
17  19  8
18  21  8
19  20  8
20  22  8
20  23  8
21  22  8
26  27  8
26  28  8
27  29  8
28  30  8
29  31  8
30  31  8
6  22  8
6  25  8
8  23  8
8  25  8
9  34  6

$$$$
56839178
  -OEChem-11282412102D

 65 68  0     0  0  0  0  0  0999 V2000
    5.4641    2.5000    0.0000 Cl  0  0  0  0  0  0  0  0  0  0  0  0
    3.7320   -0.5000    0.0000 S   0  0  0  0  0  0  0  0  0  0  0  0
    3.2320   -1.3660    0.0000 O   0  0  0  0  0  0  0  0  0  0  0  0
    4.2320    0.3660    0.0000 O   0  0  0  0  0  0  0  0  0  0  0  0
   13.2583    2.0000    0.0000 N   0  0  0  0  0  0  0  0  0  0  0  0
   14.9904    1.0000    0.0000 N   0  0  0  0  0  0  0  0  0  0  0  0
    8.9282    0.5000    0.0000 N   0  0  0  0  0  0  0  0  0  0  0  0
    2.8660    0.0000    0.0000 N   0  0  0  0  0  0  0  0  0  0  0  0
    5.4641    0.5000    0.0000 N   0  0  0  0  0  0  0  0  0  0  0  0
    7.1962    0.5000    0.0000 N   0  0  0  0  0  0  0  0  0  0  0  0
    8.0622    2.0000    0.0000 N   0  0  0  0  0  0  0  0  0  0  0  0
   13.2583    1.0000    0.0000 C   0  0  0  0  0  0  0  0  0  0  0  0
   14.1244    2.5000    0.0000 C   0  0  0  0  0  0  0  0  0  0  0  0
   14.1244    0.5000    0.0000 C   0  0  0  0  0  0  0  0  0  0  0  0
   14.9904    2.0000    0.0000 C   0  0  0  0  0  0  0  0  0  0  0  0
   12.3923    2.5000    0.0000 C   0  0  0  0  0  0  0  0  0  0  0  0
   15.8564    0.5000    0.0000 C   0  0  0  0  0  0  0  0  0  0  0  0
   11.5263    2.0000    0.0000 C   0  0  0  0  0  0  0  0  0  0  0  0
   11.5263    1.0000    0.0000 C   0  0  0  0  0  0  0  0  0  0  0  0
   10.6603    2.5000    0.0000 C   0  0  0  0  0  0  0  0  0  0  0  0
   10.6603    0.5000    0.0000 C   0  0  0  0  0  0  0  0  0  0  0  0
    9.7942    2.0000    0.0000 C   0  0  0  0  0  0  0  0  0  0  0  0
    9.7942    1.0000    0.0000 C   0  0  0  0  0  0  0  0  0  0  0  0
    4.5981   -1.0000    0.0000 C   0  0  0  0  0  0  0  0  0  0  0  0
    5.4641   -0.5000    0.0000 C   0  0  0  0  0  0  0  0  0  0  0  0
    8.0622    1.0000    0.0000 C   0  0  0  0  0  0  0  0  0  0  0  0
    4.5981   -2.0000    0.0000 C   0  0  0  0  0  0  0  0  0  0  0  0
    6.3301   -1.0000    0.0000 C   0  0  0  0  0  0  0  0  0  0  0  0
    6.3301    1.0000    0.0000 C   0  0  0  0  0  0  0  0  0  0  0  0
    5.4641   -2.5000    0.0000 C   0  0  0  0  0  0  0  0  0  0  0  0
    2.0000   -0.5000    0.0000 C   0  0  0  0  0  0  0  0  0  0  0  0
    2.8660    1.0000    0.0000 C   0  0  0  0  0  0  0  0  0  0  0  0
    6.3301   -2.0000    0.0000 C   0  0  0  0  0  0  0  0  0  0  0  0
    6.3301    2.0000    0.0000 C   0  0  0  0  0  0  0  0  0  0  0  0
    7.1962    2.5000    0.0000 C   0  0  0  0  0  0  0  0  0  0  0  0
   12.6477    1.1077    0.0000 H   0  0  0  0  0  0  0  0  0  0  0  0
   13.0463    0.4174    0.0000 H   0  0  0  0  0  0  0  0  0  0  0  0
   14.5229    2.9750    0.0000 H   0  0  0  0  0  0  0  0  0  0  0  0
   13.7258    2.9750    0.0000 H   0  0  0  0  0  0  0  0  0  0  0  0
   13.7258    0.0251    0.0000 H   0  0  0  0  0  0  0  0  0  0  0  0
   14.5229    0.0251    0.0000 H   0  0  0  0  0  0  0  0  0  0  0  0
   15.6010    1.8923    0.0000 H   0  0  0  0  0  0  0  0  0  0  0  0
   15.2024    2.5826    0.0000 H   0  0  0  0  0  0  0  0  0  0  0  0
   12.7908    2.9750    0.0000 H   0  0  0  0  0  0  0  0  0  0  0  0
   11.9938    2.9750    0.0000 H   0  0  0  0  0  0  0  0  0  0  0  0
   15.5464   -0.0369    0.0000 H   0  0  0  0  0  0  0  0  0  0  0  0
   16.3933    0.1900    0.0000 H   0  0  0  0  0  0  0  0  0  0  0  0
   16.1664    1.0369    0.0000 H   0  0  0  0  0  0  0  0  0  0  0  0
   12.0632    0.6900    0.0000 H   0  0  0  0  0  0  0  0  0  0  0  0
   10.6603    3.1200    0.0000 H   0  0  0  0  0  0  0  0  0  0  0  0
   10.6603   -0.1200    0.0000 H   0  0  0  0  0  0  0  0  0  0  0  0
    9.2573    2.3100    0.0000 H   0  0  0  0  0  0  0  0  0  0  0  0
    8.9282   -0.1200    0.0000 H   0  0  0  0  0  0  0  0  0  0  0  0
    4.0611   -2.3100    0.0000 H   0  0  0  0  0  0  0  0  0  0  0  0
    4.9272    0.8100    0.0000 H   0  0  0  0  0  0  0  0  0  0  0  0
    6.8671   -0.6900    0.0000 H   0  0  0  0  0  0  0  0  0  0  0  0
    5.4641   -3.1200    0.0000 H   0  0  0  0  0  0  0  0  0  0  0  0
    1.6900    0.0369    0.0000 H   0  0  0  0  0  0  0  0  0  0  0  0
    1.4631   -0.8100    0.0000 H   0  0  0  0  0  0  0  0  0  0  0  0
    2.3100   -1.0369    0.0000 H   0  0  0  0  0  0  0  0  0  0  0  0
    3.4860    1.0000    0.0000 H   0  0  0  0  0  0  0  0  0  0  0  0
    2.8660    1.6200    0.0000 H   0  0  0  0  0  0  0  0  0  0  0  0
    2.2460    1.0000    0.0000 H   0  0  0  0  0  0  0  0  0  0  0  0
    6.8671   -2.3100    0.0000 H   0  0  0  0  0  0  0  0  0  0  0  0
    7.1962    3.1200    0.0000 H   0  0  0  0  0  0  0  0  0  0  0  0
  1 34  1  0  0  0  0
  2  3  2  0  0  0  0
  2  4  2  0  0  0  0
  2  8  1  0  0  0  0
  2 24  1  0  0  0  0
  5 12  1  0  0  0  0
  5 13  1  0  0  0  0
  5 16  1  0  0  0  0
  6 14  1  0  0  0  0
  6 15  1  0  0  0  0
  6 17  1  0  0  0  0
  7 23  1  0  0  0  0
  7 26  1  0  0  0  0
  7 53  1  0  0  0  0
  8 31  1  0  0  0  0
  8 32  1  0  0  0  0
  9 25  1  0  0  0  0
  9 29  1  0  0  0  0
  9 55  1  0  0  0  0
 10 26  1  0  0  0  0
 10 29  2  0  0  0  0
 11 26  2  0  0  0  0
 11 35  1  0  0  0  0
 12 14  1  0  0  0  0
 12 36  1  0  0  0  0
 12 37  1  0  0  0  0
 13 15  1  0  0  0  0
 13 38  1  0  0  0  0
 13 39  1  0  0  0  0
 14 40  1  0  0  0  0
 14 41  1  0  0  0  0
 15 42  1  0  0  0  0
 15 43  1  0  0  0  0
 16 18  1  0  0  0  0
 16 44  1  0  0  0  0
 16 45  1  0  0  0  0
 17 46  1  0  0  0  0
 17 47  1  0  0  0  0
 17 48  1  0  0  0  0
 18 19  2  0  0  0  0
 18 20  1  0  0  0  0
 19 21  1  0  0  0  0
 19 49  1  0  0  0  0
 20 22  2  0  0  0  0
 20 50  1  0  0  0  0
 21 23  2  0  0  0  0
 21 51  1  0  0  0  0
 22 23  1  0  0  0  0
 22 52  1  0  0  0  0
 24 25  1  0  0  0  0
 24 27  2  0  0  0  0
 25 28  2  0  0  0  0
 27 30  1  0  0  0  0
 27 54  1  0  0  0  0
 28 33  1  0  0  0  0
 28 56  1  0  0  0  0
 29 34  1  0  0  0  0
 30 33  2  0  0  0  0
 30 57  1  0  0  0  0
 31 58  1  0  0  0  0
 31 59  1  0  0  0  0
 31 60  1  0  0  0  0
 32 61  1  0  0  0  0
 32 62  1  0  0  0  0
 32 63  1  0  0  0  0
 33 64  1  0  0  0  0
 34 35  2  0  0  0  0
 35 65  1  0  0  0  0
M  END
> <PUBCHEM_COMPOUND_CID>
56839178

> <PUBCHEM_COMPOUND_CANONICALIZED>
1

> <PUBCHEM_CACTVS_COMPLEXITY>
752

> <PUBCHEM_CACTVS_HBOND_ACCEPTOR>
9

> <PUBCHEM_CACTVS_HBOND_DONOR>
2

> <PUBCHEM_CACTVS_ROTATABLE_BOND>
8

> <PUBCHEM_CACTVS_SUBSKEYS>
AAADceB7sABEAAAAAAAAAAAAAAAAAAAAAAA8eIEAAAAAAAAB0AAAHAYQQAAADArBWiQ/8ZfIEAKgAjZnZHDCgDkxA6AJ2DwoZJiIaOLA2dHUJAhokALIyCcQgAAOCAAAAAAAAQAQAAAAAAACAAAAAAAAAA==

> <PUBCHEM_IUPAC_OPENEYE_NAME>
2-[[5-chloro-2-[4-[(4-methylpiperazin-1-yl)methyl]anilino]pyrimidin-4-yl]amino]-N,N-dimethyl-benzenesulfonamide

> <PUBCHEM_IUPAC_CAS_NAME>
2-[[5-chloro-2-[4-[(4-methyl-1-piperazinyl)methyl]anilino]-4-pyrimidinyl]amino]-N,N-dimethylbenzenesulfonamide

> <PUBCHEM_IUPAC_NAME_MARKUP>
2-[[5-chloro-2-[4-[(4-methylpiperazin-1-yl)methyl]anilino]pyrimidin-4-yl]amino]-<I>N</I>,<I>N</I>-dimethylbenzenesulfonamide

> <PUBCHEM_IUPAC_NAME>
2-[[5-chloro-2-[4-[(4-methylpiperazin-1-yl)methyl]anilino]pyrimidin-4-yl]amino]-N,N-dimethylbenzenesulfonamide

> <PUBCHEM_IUPAC_SYSTEMATIC_NAME>
2-[[5-chloranyl-2-[[4-[(4-methylpiperazin-1-yl)methyl]phenyl]amino]pyrimidin-4-yl]amino]-N,N-dimethyl-benzenesulfonamide

> <PUBCHEM_IUPAC_TRADITIONAL_NAME>
2-[[5-chloro-2-[4-[(4-methylpiperazino)methyl]anilino]pyrimidin-4-yl]amino]-N,N-dimethyl-benzenesulfonamide

> <PUBCHEM_IUPAC_INCHI>
InChI=1S/C24H30ClN7O2S/c1-30(2)35(33,34)22-7-5-4-6-21(22)28-23-20(25)16-26-24(29-23)27-19-10-8-18(9-11-19)17-32-14-12-31(3)13-15-32/h4-11,16H,12-15,17H2,1-3H3,(H2,26,27,28,29)

> <PUBCHEM_IUPAC_INCHIKEY>
YUAALFPUEOYPNX-UHFFFAOYSA-N

> <PUBCHEM_XLOGP3_AA>
3.9

> <PUBCHEM_EXACT_MASS>
515.1870221

> <PUBCHEM_MOLECULAR_FORMULA>
C24H30ClN7O2S

> <PUBCHEM_MOLECULAR_WEIGHT>
516.1

> <PUBCHEM_OPENEYE_CAN_SMILES>
CN1CCN(CC1)CC2=CC=C(C=C2)NC3=NC=C(C(=N3)NC4=CC=CC=C4S(=O)(=O)N(C)C)Cl

> <PUBCHEM_OPENEYE_ISO_SMILES>
CN1CCN(CC1)CC2=CC=C(C=C2)NC3=NC=C(C(=N3)NC4=CC=CC=C4S(=O)(=O)N(C)C)Cl

> <PUBCHEM_CACTVS_TPSA>
102

> <PUBCHEM_MONOISOTOPIC_WEIGHT>
515.1870221

> <PUBCHEM_TOTAL_CHARGE>
0

> <PUBCHEM_HEAVY_ATOM_COUNT>
35

> <PUBCHEM_ATOM_DEF_STEREO_COUNT>
0

> <PUBCHEM_ATOM_UDEF_STEREO_COUNT>
0

> <PUBCHEM_BOND_DEF_STEREO_COUNT>
0

> <PUBCHEM_BOND_UDEF_STEREO_COUNT>
0

> <PUBCHEM_ISOTOPIC_ATOM_COUNT>
0

> <PUBCHEM_COMPONENT_COUNT>
1

> <PUBCHEM_CACTVS_TAUTO_COUNT>
-1

> <PUBCHEM_COORDINATE_TYPE>
1
5
255

> <PUBCHEM_BONDANNOTATIONS>
10  26  8
10  29  8
11  26  8
11  35  8
18  19  8
18  20  8
19  21  8
20  22  8
21  23  8
22  23  8
24  25  8
24  27  8
25  28  8
27  30  8
28  33  8
29  34  8
30  33  8
34  35  8

$$$$
70693519
  -OEChem-11282412102D

 61 63  0     0  0  0  0  0  0999 V2000
   11.8505    0.0000    0.0000 Cl  0  0  0  0  0  0  0  0  0  0  0  0
   13.5940    0.9799    0.0000 F   0  0  0  0  0  0  0  0  0  0  0  0
    5.8067    5.5544    0.0000 O   0  0  0  0  0  0  0  0  0  0  0  0
    6.6728    6.0544    0.0000 O   0  0  0  0  0  0  0  0  0  0  0  0
    6.7970    9.6860    0.0000 O   0  0  0  0  0  0  0  0  0  0  0  0
    2.3426    4.5544    0.0000 N   0  0  0  0  0  0  0  0  0  0  0  0
    6.6728    4.0544    0.0000 N   0  0  0  0  0  0  0  0  0  0  0  0
   10.1532    3.0198    0.0000 N   0  0  0  0  0  0  0  0  0  0  0  0
   10.1648    6.0891    0.0000 N   0  0  0  0  0  0  0  0  0  0  0  0
   11.0708    4.5336    0.0000 N   0  0  0  0  0  0  0  0  0  0  0  0
    0.6106    5.5544    0.0000 C   0  0  0  0  0  0  0  0  0  0  0  0
    1.4766    6.0544    0.0000 C   0  0  0  0  0  0  0  0  0  0  0  0
    0.6106    4.5544    0.0000 C   0  0  0  0  0  0  0  0  0  0  0  0
    2.3426    5.5544    0.0000 C   0  0  0  0  0  0  0  0  0  0  0  0
    1.4766    4.0544    0.0000 C   0  0  0  0  0  0  0  0  0  0  0  0
    3.2087    4.0544    0.0000 C   0  0  0  0  0  0  0  0  0  0  0  0
    4.0747    4.5544    0.0000 C   0  0  0  0  0  0  0  0  0  0  0  0
    4.9407    4.0544    0.0000 C   0  0  0  0  0  0  0  0  0  0  0  0
    5.8067    4.5544    0.0000 C   0  0  0  0  0  0  0  0  0  0  0  0
    7.5388    4.5544    0.0000 C   0  0  0  0  0  0  0  0  0  0  0  0
    9.2708    4.5544    0.0000 C   0  0  0  0  0  0  0  0  0  0  0  0
    8.4048    4.0544    0.0000 C   0  0  0  0  0  0  0  0  0  0  0  0
    7.5388    5.5544    0.0000 C   0  0  0  0  0  0  0  0  0  0  0  0
    9.2708    5.5544    0.0000 C   0  0  0  0  0  0  0  0  0  0  0  0
    8.4048    6.0544    0.0000 C   0  0  0  0  0  0  0  0  0  0  0  0
   10.1648    4.0198    0.0000 C   0  0  0  0  0  0  0  0  0  0  0  0
   11.0134    2.5098    0.0000 C   0  0  0  0  0  0  0  0  0  0  0  0
   11.0708    5.5752    0.0000 C   0  0  0  0  0  0  0  0  0  0  0  0
   11.0018    1.5099    0.0000 C   0  0  0  0  0  0  0  0  0  0  0  0
   11.8851    2.9998    0.0000 C   0  0  0  0  0  0  0  0  0  0  0  0
    6.6728    7.0544    0.0000 C   0  0  0  0  0  0  0  0  0  0  0  0
   11.8620    0.9999    0.0000 C   0  0  0  0  0  0  0  0  0  0  0  0
   12.7453    2.4898    0.0000 C   0  0  0  0  0  0  0  0  0  0  0  0
   12.7338    1.4899    0.0000 C   0  0  0  0  0  0  0  0  0  0  0  0
    0.3985    6.1370    0.0000 H   0  0  0  0  0  0  0  0  0  0  0  0
    0.0000    5.4468    0.0000 H   0  0  0  0  0  0  0  0  0  0  0  0
    1.8751    6.5294    0.0000 H   0  0  0  0  0  0  0  0  0  0  0  0
    1.0781    6.5294    0.0000 H   0  0  0  0  0  0  0  0  0  0  0  0
    0.0000    4.6621    0.0000 H   0  0  0  0  0  0  0  0  0  0  0  0
    0.3985    3.9718    0.0000 H   0  0  0  0  0  0  0  0  0  0  0  0
    2.9532    5.4468    0.0000 H   0  0  0  0  0  0  0  0  0  0  0  0
    2.5547    6.1370    0.0000 H   0  0  0  0  0  0  0  0  0  0  0  0
    1.0781    3.5795    0.0000 H   0  0  0  0  0  0  0  0  0  0  0  0
    1.8751    3.5795    0.0000 H   0  0  0  0  0  0  0  0  0  0  0  0
    2.8101    3.5795    0.0000 H   0  0  0  0  0  0  0  0  0  0  0  0
    3.6072    3.5795    0.0000 H   0  0  0  0  0  0  0  0  0  0  0  0
    4.0747    5.1744    0.0000 H   0  0  0  0  0  0  0  0  0  0  0  0
    4.9407    3.4344    0.0000 H   0  0  0  0  0  0  0  0  0  0  0  0
    6.6728    3.4344    0.0000 H   0  0  0  0  0  0  0  0  0  0  0  0
    8.4048    3.4344    0.0000 H   0  0  0  0  0  0  0  0  0  0  0  0
    8.4048    6.6744    0.0000 H   0  0  0  0  0  0  0  0  0  0  0  0
    9.6127    2.7161    0.0000 H   0  0  0  0  0  0  0  0  0  0  0  0
   11.6066    5.8873    0.0000 H   0  0  0  0  0  0  0  0  0  0  0  0
   10.4614    1.2061    0.0000 H   0  0  0  0  0  0  0  0  0  0  0  0
   11.8923    3.6198    0.0000 H   0  0  0  0  0  0  0  0  0  0  0  0
    7.2928    7.0544    0.0000 H   0  0  0  0  0  0  0  0  0  0  0  0
    6.6728    7.6744    0.0000 H   0  0  0  0  0  0  0  0  0  0  0  0
    6.0528    7.0544    0.0000 H   0  0  0  0  0  0  0  0  0  0  0  0
   13.2858    2.7936    0.0000 H   0  0  0  0  0  0  0  0  0  0  0  0
    7.3339    9.9960    0.0000 H   0  0  0  0  0  0  0  0  0  0  0  0
    6.2600    9.9960    0.0000 H   0  0  0  0  0  0  0  0  0  0  0  0
  1 32  1  0  0  0  0
  2 34  1  0  0  0  0
  3 19  2  0  0  0  0
  4 23  1  0  0  0  0
  4 31  1  0  0  0  0
  5 60  1  0  0  0  0
  5 61  1  0  0  0  0
  6 14  1  0  0  0  0
  6 15  1  0  0  0  0
  6 16  1  0  0  0  0
  7 19  1  0  0  0  0
  7 20  1  0  0  0  0
  7 49  1  0  0  0  0
  8 26  1  0  0  0  0
  8 27  1  0  0  0  0
  8 52  1  0  0  0  0
  9 24  1  0  0  0  0
  9 28  2  0  0  0  0
 10 26  2  0  0  0  0
 10 28  1  0  0  0  0
 11 12  1  0  0  0  0
 11 13  1  0  0  0  0
 11 35  1  0  0  0  0
 11 36  1  0  0  0  0
 12 14  1  0  0  0  0
 12 37  1  0  0  0  0
 12 38  1  0  0  0  0
 13 15  1  0  0  0  0
 13 39  1  0  0  0  0
 13 40  1  0  0  0  0
 14 41  1  0  0  0  0
 14 42  1  0  0  0  0
 15 43  1  0  0  0  0
 15 44  1  0  0  0  0
 16 17  1  0  0  0  0
 16 45  1  0  0  0  0
 16 46  1  0  0  0  0
 17 18  2  0  0  0  0
 17 47  1  0  0  0  0
 18 19  1  0  0  0  0
 18 48  1  0  0  0  0
 20 22  1  0  0  0  0
 20 23  2  0  0  0  0
 21 22  2  0  0  0  0
 21 24  1  0  0  0  0
 21 26  1  0  0  0  0
 22 50  1  0  0  0  0
 23 25  1  0  0  0  0
 24 25  2  0  0  0  0
 25 51  1  0  0  0  0
 27 29  2  0  0  0  0
 27 30  1  0  0  0  0
 28 53  1  0  0  0  0
 29 32  1  0  0  0  0
 29 54  1  0  0  0  0
 30 33  2  0  0  0  0
 30 55  1  0  0  0  0
 31 56  1  0  0  0  0
 31 57  1  0  0  0  0
 31 58  1  0  0  0  0
 32 34  2  0  0  0  0
 33 34  1  0  0  0  0
 33 59  1  0  0  0  0
M  END
> <PUBCHEM_COMPOUND_CID>
70693519

> <PUBCHEM_COMPOUND_CANONICALIZED>
1

> <PUBCHEM_CACTVS_COMPLEXITY>
665

> <PUBCHEM_CACTVS_HBOND_ACCEPTOR>
8

> <PUBCHEM_CACTVS_HBOND_DONOR>
3

> <PUBCHEM_CACTVS_ROTATABLE_BOND>
7

> <PUBCHEM_CACTVS_SUBSKEYS>
AAADceB7sQAEAAAAAAAAAAAAAAAAAAAAAAA8eIEAAAAAAACx9AAAHwIQCAAADA7Bni439vfIFACoAydzdACCiCkxJ6AJ2CA/btiOLuLF+9uFNChu1BvY6aeQ0AMOIACAQgICEABAAQCEBAQgAAAAAAAAAA==

> <PUBCHEM_IUPAC_OPENEYE_NAME>
(E)-N-[4-(3-chloro-4-fluoro-anilino)-7-methoxy-quinazolin-6-yl]-4-(1-piperidyl)but-2-enamide;hydrate

> <PUBCHEM_IUPAC_CAS_NAME>
(E)-N-[4-(3-chloro-4-fluoroanilino)-7-methoxy-6-quinazolinyl]-4-(1-piperidinyl)-2-butenamide;hydrate

> <PUBCHEM_IUPAC_NAME_MARKUP>
(<I>E</I>)-<I>N</I>-[4-(3-chloro-4-fluoroanilino)-7-methoxyquinazolin-6-yl]-4-piperidin-1-ylbut-2-enamide;hydrate

> <PUBCHEM_IUPAC_NAME>
(E)-N-[4-(3-chloro-4-fluoroanilino)-7-methoxyquinazolin-6-yl]-4-piperidin-1-ylbut-2-enamide;hydrate

> <PUBCHEM_IUPAC_SYSTEMATIC_NAME>
(E)-N-[4-[(3-chloranyl-4-fluoranyl-phenyl)amino]-7-methoxy-quinazolin-6-yl]-4-piperidin-1-yl-but-2-enamide;hydrate

> <PUBCHEM_IUPAC_TRADITIONAL_NAME>
(E)-N-[4-(3-chloro-4-fluoro-anilino)-7-methoxy-quinazolin-6-yl]-4-piperidino-but-2-enamide;hydrate

> <PUBCHEM_IUPAC_INCHI>
InChI=1S/C24H25ClFN5O2.H2O/c1-33-22-14-20-17(24(28-15-27-20)29-16-7-8-19(26)18(25)12-16)13-21(22)30-23(32)6-5-11-31-9-3-2-4-10-31;/h5-8,12-15H,2-4,9-11H2,1H3,(H,30,32)(H,27,28,29);1H2/b6-5+;

> <PUBCHEM_IUPAC_INCHIKEY>
BSPLGGCPNTZPIH-IPZCTEOASA-N

> <PUBCHEM_EXACT_MASS>
487.1786456

> <PUBCHEM_MOLECULAR_FORMULA>
C24H27ClFN5O3

> <PUBCHEM_MOLECULAR_WEIGHT>
488.0

> <PUBCHEM_OPENEYE_CAN_SMILES>
COC1=C(C=C2C(=C1)N=CN=C2NC3=CC(=C(C=C3)F)Cl)NC(=O)C=CCN4CCCCC4.O

> <PUBCHEM_OPENEYE_ISO_SMILES>
COC1=C(C=C2C(=C1)N=CN=C2NC3=CC(=C(C=C3)F)Cl)NC(=O)/C=C/CN4CCCCC4.O

> <PUBCHEM_CACTVS_TPSA>
80.4

> <PUBCHEM_MONOISOTOPIC_WEIGHT>
487.1786456

> <PUBCHEM_TOTAL_CHARGE>
0

> <PUBCHEM_HEAVY_ATOM_COUNT>
34

> <PUBCHEM_ATOM_DEF_STEREO_COUNT>
0

> <PUBCHEM_ATOM_UDEF_STEREO_COUNT>
0

> <PUBCHEM_BOND_DEF_STEREO_COUNT>
1

> <PUBCHEM_BOND_UDEF_STEREO_COUNT>
0

> <PUBCHEM_ISOTOPIC_ATOM_COUNT>
0

> <PUBCHEM_COMPONENT_COUNT>
2

> <PUBCHEM_CACTVS_TAUTO_COUNT>
-1

> <PUBCHEM_COORDINATE_TYPE>
1
5
255

> <PUBCHEM_BONDANNOTATIONS>
10  26  8
10  28  8
20  22  8
20  23  8
21  22  8
21  24  8
21  26  8
23  25  8
24  25  8
27  29  8
27  30  8
29  32  8
30  33  8
32  34  8
33  34  8
9  24  8
9  28  8

$$$$
71571562
  -OEChem-11282412102D

 58 61  0     1  0  0  0  0  0999 V2000
    9.9988    6.6546    0.0000 Cl  0  0  0  0  0  0  0  0  0  0  0  0
    4.7988    7.2498    0.0000 O   0  0  0  0  0  0  0  0  0  0  0  0
    6.2021    4.0091    0.0000 O   0  0  0  0  0  0  0  0  0  0  0  0
    4.4579   11.8566    0.0000 O   0  0  0  0  0  0  0  0  0  0  0  0
    3.2152    6.4451    0.0000 N   0  0  0  0  0  0  0  0  0  0  0  0
    4.4792    4.1872    0.0000 N   0  0  0  0  0  0  0  0  0  0  0  0
    3.2152    8.0546    0.0000 N   0  0  0  0  0  0  0  0  0  0  0  0
    1.4030    6.2498    0.0000 N   0  0  0  0  0  0  0  0  0  0  0  0
    0.5369    7.7498    0.0000 N   0  0  0  0  0  0  0  0  0  0  0  0
    1.4030    9.2498    0.0000 N   0  0  0  0  0  0  0  0  0  0  0  0
    3.5259    5.4946    0.0000 C   0  0  2  0  0  0  0  0  0  0  0  0
    2.9395    4.6845    0.0000 C   0  0  0  0  0  0  0  0  0  0  0  0
    4.4775    5.1872    0.0000 C   0  0  0  0  0  0  0  0  0  0  0  0
    3.5287    3.8765    0.0000 C   0  0  0  0  0  0  0  0  0  0  0  0
    2.2690    6.7498    0.0000 C   0  0  0  0  0  0  0  0  0  0  0  0
    3.7988    7.2498    0.0000 C   0  0  0  0  0  0  0  0  0  0  0  0
    2.2690    7.7498    0.0000 C   0  0  0  0  0  0  0  0  0  0  0  0
    5.2892    3.6008    0.0000 C   0  0  0  0  0  0  0  0  0  0  0  0
    3.5259    9.0051    0.0000 C   0  0  0  0  0  0  0  0  0  0  0  0
    1.4030    8.2498    0.0000 C   0  0  0  0  0  0  0  0  0  0  0  0
    0.5369    6.7498    0.0000 C   0  0  0  0  0  0  0  0  0  0  0  0
    5.1864    2.6061    0.0000 C   0  0  0  0  0  0  0  0  0  0  0  0
    2.8580    9.7494    0.0000 C   0  0  0  0  0  0  0  0  0  0  0  0
    4.5044    9.2113    0.0000 C   0  0  0  0  0  0  0  0  0  0  0  0
    3.1687   10.6999    0.0000 C   0  0  0  0  0  0  0  0  0  0  0  0
    4.8150   10.1618    0.0000 C   0  0  0  0  0  0  0  0  0  0  0  0
    4.1472   10.9061    0.0000 C   0  0  0  0  0  0  0  0  0  0  0  0
    5.0836    1.6114    0.0000 C   0  0  0  0  0  0  0  0  0  0  0  0
    4.9808    0.6167    0.0000 C   0  0  0  0  0  0  0  0  0  0  0  0
    5.4364   12.0629    0.0000 C   0  0  0  0  0  0  0  0  0  0  0  0
    5.7470   13.0134    0.0000 C   0  0  0  0  0  0  0  0  0  0  0  0
    6.1042   11.3186    0.0000 C   0  0  0  0  0  0  0  0  0  0  0  0
    6.7255   13.2196    0.0000 C   0  0  0  0  0  0  0  0  0  0  0  0
    7.0827   11.5248    0.0000 C   0  0  0  0  0  0  0  0  0  0  0  0
    7.3934   12.4753    0.0000 C   0  0  0  0  0  0  0  0  0  0  0  0
    3.9635    5.9337    0.0000 H   0  0  0  0  0  0  0  0  0  0  0  0
    2.4780    5.0986    0.0000 H   0  0  0  0  0  0  0  0  0  0  0  0
    2.4794    4.2689    0.0000 H   0  0  0  0  0  0  0  0  0  0  0  0
    5.0942    5.1235    0.0000 H   0  0  0  0  0  0  0  0  0  0  0  0
    4.6053    5.7939    0.0000 H   0  0  0  0  0  0  0  0  0  0  0  0
    2.9923    3.5656    0.0000 H   0  0  0  0  0  0  0  0  0  0  0  0
    3.7818    3.3106    0.0000 H   0  0  0  0  0  0  0  0  0  0  0  0
    0.0000    6.4398    0.0000 H   0  0  0  0  0  0  0  0  0  0  0  0
    2.2514    9.6215    0.0000 H   0  0  0  0  0  0  0  0  0  0  0  0
    4.9184    8.7498    0.0000 H   0  0  0  0  0  0  0  0  0  0  0  0
    0.8660    9.5598    0.0000 H   0  0  0  0  0  0  0  0  0  0  0  0
    1.9399    9.5598    0.0000 H   0  0  0  0  0  0  0  0  0  0  0  0
    2.7546   11.1614    0.0000 H   0  0  0  0  0  0  0  0  0  0  0  0
    5.4217   10.2897    0.0000 H   0  0  0  0  0  0  0  0  0  0  0  0
    4.3641    0.6805    0.0000 H   0  0  0  0  0  0  0  0  0  0  0  0
    4.9171    0.0000    0.0000 H   0  0  0  0  0  0  0  0  0  0  0  0
    5.5975    0.5530    0.0000 H   0  0  0  0  0  0  0  0  0  0  0  0
    5.3330   13.4748    0.0000 H   0  0  0  0  0  0  0  0  0  0  0  0
    5.9116   10.7292    0.0000 H   0  0  0  0  0  0  0  0  0  0  0  0
    6.9181   13.8089    0.0000 H   0  0  0  0  0  0  0  0  0  0  0  0
    7.4968   11.0633    0.0000 H   0  0  0  0  0  0  0  0  0  0  0  0
    8.0000   12.6032    0.0000 H   0  0  0  0  0  0  0  0  0  0  0  0
   10.9988    6.6546    0.0000 H   0  0  0  0  0  0  0  0  0  0  0  0
  1 58  1  0  0  0  0
  2 16  2  0  0  0  0
  3 18  2  0  0  0  0
  4 27  1  0  0  0  0
  4 30  1  0  0  0  0
 11  5  1  1  0  0  0
  5 15  1  0  0  0  0
  5 16  1  0  0  0  0
  6 13  1  0  0  0  0
  6 14  1  0  0  0  0
  6 18  1  0  0  0  0
  7 16  1  0  0  0  0
  7 17  1  0  0  0  0
  7 19  1  0  0  0  0
  8 15  2  0  0  0  0
  8 21  1  0  0  0  0
  9 20  1  0  0  0  0
  9 21  2  0  0  0  0
 10 20  1  0  0  0  0
 10 46  1  0  0  0  0
 10 47  1  0  0  0  0
 11 12  1  0  0  0  0
 11 13  1  0  0  0  0
 11 36  1  0  0  0  0
 12 14  1  0  0  0  0
 12 37  1  0  0  0  0
 12 38  1  0  0  0  0
 13 39  1  0  0  0  0
 13 40  1  0  0  0  0
 14 41  1  0  0  0  0
 14 42  1  0  0  0  0
 15 17  1  0  0  0  0
 17 20  2  0  0  0  0
 18 22  1  0  0  0  0
 19 23  2  0  0  0  0
 19 24  1  0  0  0  0
 21 43  1  0  0  0  0
 22 28  3  0  0  0  0
 23 25  1  0  0  0  0
 23 44  1  0  0  0  0
 24 26  2  0  0  0  0
 24 45  1  0  0  0  0
 25 27  2  0  0  0  0
 25 48  1  0  0  0  0
 26 27  1  0  0  0  0
 26 49  1  0  0  0  0
 28 29  1  0  0  0  0
 29 50  1  0  0  0  0
 29 51  1  0  0  0  0
 29 52  1  0  0  0  0
 30 31  2  0  0  0  0
 30 32  1  0  0  0  0
 31 33  1  0  0  0  0
 31 53  1  0  0  0  0
 32 34  2  0  0  0  0
 32 54  1  0  0  0  0
 33 35  2  0  0  0  0
 33 55  1  0  0  0  0
 34 35  1  0  0  0  0
 34 56  1  0  0  0  0
 35 57  1  0  0  0  0
M  END
> <PUBCHEM_COMPOUND_CID>
71571562

> <PUBCHEM_COMPOUND_CANONICALIZED>
1

> <PUBCHEM_CACTVS_COMPLEXITY>
825

> <PUBCHEM_CACTVS_HBOND_ACCEPTOR>
6

> <PUBCHEM_CACTVS_HBOND_DONOR>
2

> <PUBCHEM_CACTVS_ROTATABLE_BOND>
4

> <PUBCHEM_CACTVS_SUBSKEYS>
AAADceB7sAAEAAAAAAAAAAAAAAAAAWLAAAA8YIAAAAAAAFgB0AAAHgAQAAAACCzBkgQ39pdIFADoECdzdACCiCkxMqAJ2CAufJiMbmLE+duWPCjsxxPI6CewQAAAAEAAAAAAAAAAgAAAAAAAAAAAAAAAAA==

> <PUBCHEM_IUPAC_OPENEYE_NAME>
6-amino-9-[(3R)-1-but-2-ynoylpyrrolidin-3-yl]-7-(4-phenoxyphenyl)purin-8-one;hydrochloride

> <PUBCHEM_IUPAC_CAS_NAME>
6-amino-9-[(3R)-1-(1-oxobut-2-ynyl)-3-pyrrolidinyl]-7-(4-phenoxyphenyl)-8-purinone;hydrochloride

> <PUBCHEM_IUPAC_NAME_MARKUP>
6-amino-9-[(3<I>R</I>)-1-but-2-ynoylpyrrolidin-3-yl]-7-(4-phenoxyphenyl)purin-8-one;hydrochloride

> <PUBCHEM_IUPAC_NAME>
6-amino-9-[(3R)-1-but-2-ynoylpyrrolidin-3-yl]-7-(4-phenoxyphenyl)purin-8-one;hydrochloride

> <PUBCHEM_IUPAC_SYSTEMATIC_NAME>
6-azanyl-9-[(3R)-1-but-2-ynoylpyrrolidin-3-yl]-7-(4-phenoxyphenyl)purin-8-one;hydrochloride

> <PUBCHEM_IUPAC_TRADITIONAL_NAME>
6-amino-9-[(3R)-1-but-2-ynoylpyrrolidin-3-yl]-7-(4-phenoxyphenyl)purin-8-one;hydrochloride

> <PUBCHEM_IUPAC_INCHI>
InChI=1S/C25H22N6O3.ClH/c1-2-6-21(32)29-14-13-18(15-29)31-24-22(23(26)27-16-28-24)30(25(31)33)17-9-11-20(12-10-17)34-19-7-4-3-5-8-19;/h3-5,7-12,16,18H,13-15H2,1H3,(H2,26,27,28);1H/t18-;/m1./s1

> <PUBCHEM_IUPAC_INCHIKEY>
UQYDCIJFACDXSG-GMUIIQOCSA-N

> <PUBCHEM_EXACT_MASS>
490.1520163

> <PUBCHEM_MOLECULAR_FORMULA>
C25H23ClN6O3

> <PUBCHEM_MOLECULAR_WEIGHT>
490.9

> <PUBCHEM_OPENEYE_CAN_SMILES>
CC#CC(=O)N1CCC(C1)N2C3=NC=NC(=C3N(C2=O)C4=CC=C(C=C4)OC5=CC=CC=C5)N.Cl

> <PUBCHEM_OPENEYE_ISO_SMILES>
CC#CC(=O)N1CC[C@H](C1)N2C3=NC=NC(=C3N(C2=O)C4=CC=C(C=C4)OC5=CC=CC=C5)N.Cl

> <PUBCHEM_CACTVS_TPSA>
105

> <PUBCHEM_MONOISOTOPIC_WEIGHT>
490.1520163

> <PUBCHEM_TOTAL_CHARGE>
0

> <PUBCHEM_HEAVY_ATOM_COUNT>
35

> <PUBCHEM_ATOM_DEF_STEREO_COUNT>
1

> <PUBCHEM_ATOM_UDEF_STEREO_COUNT>
0

> <PUBCHEM_BOND_DEF_STEREO_COUNT>
0

> <PUBCHEM_BOND_UDEF_STEREO_COUNT>
0

> <PUBCHEM_ISOTOPIC_ATOM_COUNT>
0

> <PUBCHEM_COMPONENT_COUNT>
2

> <PUBCHEM_CACTVS_TAUTO_COUNT>
3

> <PUBCHEM_COORDINATE_TYPE>
1
5
255

> <PUBCHEM_BONDANNOTATIONS>
15  17  8
17  20  8
19  23  8
19  24  8
23  25  8
24  26  8
25  27  8
26  27  8
30  31  8
30  32  8
31  33  8
32  34  8
33  35  8
34  35  8
11  5  5
5  15  8
5  16  8
7  16  8
7  17  8
8  15  8
8  21  8
9  20  8
9  21  8

$$$$
72703790
  -OEChem-11282412102D

 66 69  0     1  0  0  0  0  0999 V2000
    3.9209   -0.6940    0.0000 Cl  0  0  0  0  0  0  0  0  0  0  0  0
    3.6817    0.7783    0.0000 O   0  0  0  0  0  0  0  0  0  0  0  0
    7.3167   -4.4261    0.0000 O   0  0  0  0  0  0  0  0  0  0  0  0
    5.7331   -1.8893    0.0000 N   0  0  0  0  0  0  0  0  0  0  0  0
    5.4136    0.7494    0.0000 N   0  0  0  0  0  0  0  0  0  0  0  0
    5.7331   -3.4988    0.0000 N   0  0  0  0  0  0  0  0  0  0  0  0
    7.3167   -2.6940    0.0000 N   0  0  0  0  0  0  0  0  0  0  0  0
    2.8742    4.2922    0.0000 N   0  0  0  0  0  0  0  0  0  0  0  0
   10.8167   -3.5600    0.0000 N   0  0  0  0  0  0  0  0  0  0  0  0
    6.0438   -0.9388    0.0000 C   0  0  2  0  0  0  0  0  0  0  0  0
    7.0350   -0.8062    0.0000 C   0  0  0  0  0  0  0  0  0  0  0  0
    5.3222   -0.2465    0.0000 C   0  0  0  0  0  0  0  0  0  0  0  0
    7.5494    0.0513    0.0000 C   0  0  0  0  0  0  0  0  0  0  0  0
    7.1996    0.9882    0.0000 C   0  0  0  0  0  0  0  0  0  0  0  0
    6.2491    1.2988    0.0000 C   0  0  0  0  0  0  0  0  0  0  0  0
    4.7869   -2.1940    0.0000 C   0  0  0  0  0  0  0  0  0  0  0  0
    6.3167   -2.6940    0.0000 C   0  0  0  0  0  0  0  0  0  0  0  0
    4.5560    1.2638    0.0000 C   0  0  0  0  0  0  0  0  0  0  0  0
    4.7869   -3.1940    0.0000 C   0  0  0  0  0  0  0  0  0  0  0  0
    3.9209   -1.6940    0.0000 C   0  0  0  0  0  0  0  0  0  0  0  0
    3.9209   -3.6940    0.0000 C   0  0  0  0  0  0  0  0  0  0  0  0
    4.5727    2.2636    0.0000 C   0  0  0  0  0  0  0  0  0  0  0  0
    3.0548   -2.1940    0.0000 C   0  0  0  0  0  0  0  0  0  0  0  0
    3.0548   -3.1940    0.0000 C   0  0  0  0  0  0  0  0  0  0  0  0
    7.8167   -3.5600    0.0000 C   0  0  0  0  0  0  0  0  0  0  0  0
    3.7151    2.7780    0.0000 C   0  0  0  0  0  0  0  0  0  0  0  0
    3.7318    3.7778    0.0000 C   0  0  0  0  0  0  0  0  0  0  0  0
    8.8167   -3.5600    0.0000 C   0  0  0  0  0  0  0  0  0  0  0  0
    9.3167   -4.4261    0.0000 C   0  0  0  0  0  0  0  0  0  0  0  0
    9.3167   -2.6940    0.0000 C   0  0  0  0  0  0  0  0  0  0  0  0
    2.8909    5.2921    0.0000 C   0  0  0  0  0  0  0  0  0  0  0  0
    2.0000    3.8068    0.0000 C   0  0  0  0  0  0  0  0  0  0  0  0
   10.3167   -4.4261    0.0000 C   0  0  0  0  0  0  0  0  0  0  0  0
   10.3167   -2.6940    0.0000 C   0  0  0  0  0  0  0  0  0  0  0  0
   10.8167   -5.2921    0.0000 C   0  0  0  0  0  0  0  0  0  0  0  0
    6.4403   -1.4154    0.0000 H   0  0  0  0  0  0  0  0  0  0  0  0
    6.9783   -1.4237    0.0000 H   0  0  0  0  0  0  0  0  0  0  0  0
    7.6243   -0.9989    0.0000 H   0  0  0  0  0  0  0  0  0  0  0  0
    4.7329   -0.0538    0.0000 H   0  0  0  0  0  0  0  0  0  0  0  0
    5.0033   -0.7781    0.0000 H   0  0  0  0  0  0  0  0  0  0  0  0
    7.9967   -0.3779    0.0000 H   0  0  0  0  0  0  0  0  0  0  0  0
    8.0674    0.3920    0.0000 H   0  0  0  0  0  0  0  0  0  0  0  0
    7.8141    1.0703    0.0000 H   0  0  0  0  0  0  0  0  0  0  0  0
    7.2562    1.6056    0.0000 H   0  0  0  0  0  0  0  0  0  0  0  0
    6.5680    1.8305    0.0000 H   0  0  0  0  0  0  0  0  0  0  0  0
    5.8017    1.7280    0.0000 H   0  0  0  0  0  0  0  0  0  0  0  0
    7.6267   -2.1571    0.0000 H   0  0  0  0  0  0  0  0  0  0  0  0
    3.9209   -4.3140    0.0000 H   0  0  0  0  0  0  0  0  0  0  0  0
    5.1147    2.5646    0.0000 H   0  0  0  0  0  0  0  0  0  0  0  0
    2.5179   -1.8840    0.0000 H   0  0  0  0  0  0  0  0  0  0  0  0
    2.5179   -3.5040    0.0000 H   0  0  0  0  0  0  0  0  0  0  0  0
    3.1731    2.4770    0.0000 H   0  0  0  0  0  0  0  0  0  0  0  0
    4.3405    3.6600    0.0000 H   0  0  0  0  0  0  0  0  0  0  0  0
    3.9536    4.3568    0.0000 H   0  0  0  0  0  0  0  0  0  0  0  0
    9.0067   -4.9630    0.0000 H   0  0  0  0  0  0  0  0  0  0  0  0
    9.0067   -2.1571    0.0000 H   0  0  0  0  0  0  0  0  0  0  0  0
    3.5108    5.2818    0.0000 H   0  0  0  0  0  0  0  0  0  0  0  0
    2.9013    5.9120    0.0000 H   0  0  0  0  0  0  0  0  0  0  0  0
    2.2710    5.3024    0.0000 H   0  0  0  0  0  0  0  0  0  0  0  0
    1.6990    4.3488    0.0000 H   0  0  0  0  0  0  0  0  0  0  0  0
    1.4580    3.5058    0.0000 H   0  0  0  0  0  0  0  0  0  0  0  0
    2.3010    3.2647    0.0000 H   0  0  0  0  0  0  0  0  0  0  0  0
   10.6267   -2.1571    0.0000 H   0  0  0  0  0  0  0  0  0  0  0  0
   10.2798   -5.6021    0.0000 H   0  0  0  0  0  0  0  0  0  0  0  0
   11.1267   -5.8290    0.0000 H   0  0  0  0  0  0  0  0  0  0  0  0
   11.3537   -4.9821    0.0000 H   0  0  0  0  0  0  0  0  0  0  0  0
  1 20  1  0  0  0  0
  2 18  2  0  0  0  0
  3 25  2  0  0  0  0
 10  4  1  1  0  0  0
  4 16  1  0  0  0  0
  4 17  1  0  0  0  0
  5 12  1  0  0  0  0
  5 15  1  0  0  0  0
  5 18  1  0  0  0  0
  6 17  2  0  0  0  0
  6 19  1  0  0  0  0
  7 17  1  0  0  0  0
  7 25  1  0  0  0  0
  7 47  1  0  0  0  0
  8 27  1  0  0  0  0
  8 31  1  0  0  0  0
  8 32  1  0  0  0  0
  9 33  2  0  0  0  0
  9 34  1  0  0  0  0
 10 11  1  0  0  0  0
 10 12  1  0  0  0  0
 10 36  1  0  0  0  0
 11 13  1  0  0  0  0
 11 37  1  0  0  0  0
 11 38  1  0  0  0  0
 12 39  1  0  0  0  0
 12 40  1  0  0  0  0
 13 14  1  0  0  0  0
 13 41  1  0  0  0  0
 13 42  1  0  0  0  0
 14 15  1  0  0  0  0
 14 43  1  0  0  0  0
 14 44  1  0  0  0  0
 15 45  1  0  0  0  0
 15 46  1  0  0  0  0
 16 19  2  0  0  0  0
 16 20  1  0  0  0  0
 18 22  1  0  0  0  0
 19 21  1  0  0  0  0
 20 23  2  0  0  0  0
 21 24  2  0  0  0  0
 21 48  1  0  0  0  0
 22 26  2  0  0  0  0
 22 49  1  0  0  0  0
 23 24  1  0  0  0  0
 23 50  1  0  0  0  0
 24 51  1  0  0  0  0
 25 28  1  0  0  0  0
 26 27  1  0  0  0  0
 26 52  1  0  0  0  0
 27 53  1  0  0  0  0
 27 54  1  0  0  0  0
 28 29  2  0  0  0  0
 28 30  1  0  0  0  0
 29 33  1  0  0  0  0
 29 55  1  0  0  0  0
 30 34  2  0  0  0  0
 30 56  1  0  0  0  0
 31 57  1  0  0  0  0
 31 58  1  0  0  0  0
 31 59  1  0  0  0  0
 32 60  1  0  0  0  0
 32 61  1  0  0  0  0
 32 62  1  0  0  0  0
 33 35  1  0  0  0  0
 34 63  1  0  0  0  0
 35 64  1  0  0  0  0
 35 65  1  0  0  0  0
 35 66  1  0  0  0  0
M  END
> <PUBCHEM_COMPOUND_CID>
72703790

> <PUBCHEM_COMPOUND_CANONICALIZED>
1

> <PUBCHEM_CACTVS_COMPLEXITY>
764

> <PUBCHEM_CACTVS_HBOND_ACCEPTOR>
5

> <PUBCHEM_CACTVS_HBOND_DONOR>
1

> <PUBCHEM_CACTVS_ROTATABLE_BOND>
6

> <PUBCHEM_CACTVS_SUBSKEYS>
AAADceB7sAAEAAAAAAAAAAAAAAAAAWAAAAA8QAAABYAAAFgB/AAAHgIQAAAADCrBniQ/0LfMEACoAzV3dACCgC01F6AJ2CE4dtiIaPLBn5HUIQhohwLIyaccAAAOAAAAAAIAADAAAAAABAAAYAAAAAAAAA==

> <PUBCHEM_IUPAC_OPENEYE_NAME>
N-[7-chloro-1-[(3R)-1-[(E)-4-(dimethylamino)but-2-enoyl]azepan-3-yl]benzimidazol-2-yl]-2-methyl-pyridine-4-carboxamide

> <PUBCHEM_IUPAC_CAS_NAME>
N-[7-chloro-1-[(3R)-1-[(E)-4-(dimethylamino)-1-oxobut-2-enyl]-3-azepanyl]-2-benzimidazolyl]-2-methyl-4-pyridinecarboxamide

> <PUBCHEM_IUPAC_NAME_MARKUP>
<I>N</I>-[7-chloro-1-[(3<I>R</I>)-1-[(<I>E</I>)-4-(dimethylamino)but-2-enoyl]azepan-3-yl]benzimidazol-2-yl]-2-methylpyridine-4-carboxamide

> <PUBCHEM_IUPAC_NAME>
N-[7-chloro-1-[(3R)-1-[(E)-4-(dimethylamino)but-2-enoyl]azepan-3-yl]benzimidazol-2-yl]-2-methylpyridine-4-carboxamide

> <PUBCHEM_IUPAC_SYSTEMATIC_NAME>
N-[7-chloranyl-1-[(3R)-1-[(E)-4-(dimethylamino)but-2-enoyl]azepan-3-yl]benzimidazol-2-yl]-2-methyl-pyridine-4-carboxamide

> <PUBCHEM_IUPAC_TRADITIONAL_NAME>
N-[7-chloro-1-[(3R)-1-[(E)-4-(dimethylamino)but-2-enoyl]azepan-3-yl]benzimidazol-2-yl]-2-methyl-isonicotinamide

> <PUBCHEM_IUPAC_INCHI>
InChI=1S/C26H31ClN6O2/c1-18-16-19(12-13-28-18)25(35)30-26-29-22-10-6-9-21(27)24(22)33(26)20-8-4-5-15-32(17-20)23(34)11-7-14-31(2)3/h6-7,9-13,16,20H,4-5,8,14-15,17H2,1-3H3,(H,29,30,35)/b11-7+/t20-/m1/s1

> <PUBCHEM_IUPAC_INCHIKEY>
IOMMMLWIABWRKL-WUTDNEBXSA-N

> <PUBCHEM_XLOGP3_AA>
3.2

> <PUBCHEM_EXACT_MASS>
494.2197019

> <PUBCHEM_MOLECULAR_FORMULA>
C26H31ClN6O2

> <PUBCHEM_MOLECULAR_WEIGHT>
495.0

> <PUBCHEM_OPENEYE_CAN_SMILES>
CC1=NC=CC(=C1)C(=O)NC2=NC3=C(N2C4CCCCN(C4)C(=O)C=CCN(C)C)C(=CC=C3)Cl

> <PUBCHEM_OPENEYE_ISO_SMILES>
CC1=NC=CC(=C1)C(=O)NC2=NC3=C(N2[C@@H]4CCCCN(C4)C(=O)/C=C/CN(C)C)C(=CC=C3)Cl

> <PUBCHEM_CACTVS_TPSA>
83.4

> <PUBCHEM_MONOISOTOPIC_WEIGHT>
494.2197019

> <PUBCHEM_TOTAL_CHARGE>
0

> <PUBCHEM_HEAVY_ATOM_COUNT>
35

> <PUBCHEM_ATOM_DEF_STEREO_COUNT>
1

> <PUBCHEM_ATOM_UDEF_STEREO_COUNT>
0

> <PUBCHEM_BOND_DEF_STEREO_COUNT>
1

> <PUBCHEM_BOND_UDEF_STEREO_COUNT>
0

> <PUBCHEM_ISOTOPIC_ATOM_COUNT>
0

> <PUBCHEM_COMPONENT_COUNT>
1

> <PUBCHEM_CACTVS_TAUTO_COUNT>
-1

> <PUBCHEM_COORDINATE_TYPE>
1
5
255

> <PUBCHEM_BONDANNOTATIONS>
16  19  8
16  20  8
19  21  8
20  23  8
21  24  8
23  24  8
28  29  8
28  30  8
29  33  8
30  34  8
10  4  5
4  16  8
4  17  8
6  17  8
6  19  8
9  33  8
9  34  8

$$$$
73053710
  -OEChem-11282412102D

 46 48  0     0  0  0  0  0  0999 V2000
    0.0000    2.3940    0.0000 Cl  0  0  0  0  0  0  0  0  0  0  0  0
    5.9861    8.7266    0.0000 Cl  0  0  0  0  0  0  0  0  0  0  0  0
   12.9722    5.9558    0.0000 F   0  0  0  0  0  0  0  0  0  0  0  0
   11.7874    6.7281    0.0000 F   0  0  0  0  0  0  0  0  0  0  0  0
   12.1999    4.7711    0.0000 F   0  0  0  0  0  0  0  0  0  0  0  0
    3.5443    0.5893    0.0000 N   0  0  0  0  0  0  0  0  0  0  0  0
    7.7690    3.9742    0.0000 N   0  0  0  0  0  0  0  0  0  0  0  0
    1.7320    0.3941    0.0000 N   0  0  0  0  0  0  0  0  0  0  0  0
    6.4798    2.8174    0.0000 N   0  0  0  0  0  0  0  0  0  0  0  0
   10.3473    6.2877    0.0000 N   0  0  0  0  0  0  0  0  0  0  0  0
    3.5443    2.1988    0.0000 C   0  0  0  0  0  0  0  0  0  0  0  0
    3.8550    3.1493    0.0000 C   0  0  0  0  0  0  0  0  0  0  0  0
    2.5981    1.8940    0.0000 C   0  0  0  0  0  0  0  0  0  0  0  0
    4.8335    3.3555    0.0000 C   0  0  0  0  0  0  0  0  0  0  0  0
    2.5981    0.8941    0.0000 C   0  0  0  0  0  0  0  0  0  0  0  0
    4.1279    1.3940    0.0000 C   0  0  0  0  0  0  0  0  0  0  0  0
    1.7320    2.3940    0.0000 C   0  0  0  0  0  0  0  0  0  0  0  0
    5.1441    4.3060    0.0000 C   0  0  0  0  0  0  0  0  0  0  0  0
    5.5013    2.6112    0.0000 C   0  0  0  0  0  0  0  0  0  0  0  0
    6.7905    3.7680    0.0000 C   0  0  0  0  0  0  0  0  0  0  0  0
    8.0796    4.9247    0.0000 C   0  0  0  0  0  0  0  0  0  0  0  0
    6.1226    4.5123    0.0000 C   0  0  0  0  0  0  0  0  0  0  0  0
    0.8660    1.8940    0.0000 C   0  0  0  0  0  0  0  0  0  0  0  0
    9.0582    5.1309    0.0000 C   0  0  0  0  0  0  0  0  0  0  0  0
    0.8660    0.8941    0.0000 C   0  0  0  0  0  0  0  0  0  0  0  0
    9.7260    4.3866    0.0000 C   0  0  0  0  0  0  0  0  0  0  0  0
    9.3688    6.0814    0.0000 C   0  0  0  0  0  0  0  0  0  0  0  0
   10.7045    4.5928    0.0000 C   0  0  0  0  0  0  0  0  0  0  0  0
   11.0152    5.5434    0.0000 C   0  0  0  0  0  0  0  0  0  0  0  0
   11.9937    5.7496    0.0000 C   0  0  0  0  0  0  0  0  0  0  0  0
    3.8344    3.7690    0.0000 H   0  0  0  0  0  0  0  0  0  0  0  0
    3.2411    3.2367    0.0000 H   0  0  0  0  0  0  0  0  0  0  0  0
    4.7479    1.3940    0.0000 H   0  0  0  0  0  0  0  0  0  0  0  0
    3.7369    0.0000    0.0000 H   0  0  0  0  0  0  0  0  0  0  0  0
    1.7320    3.0141    0.0000 H   0  0  0  0  0  0  0  0  0  0  0  0
    4.7301    4.7675    0.0000 H   0  0  0  0  0  0  0  0  0  0  0  0
    5.3087    2.0219    0.0000 H   0  0  0  0  0  0  0  0  0  0  0  0
    8.0591    5.5444    0.0000 H   0  0  0  0  0  0  0  0  0  0  0  0
    7.4658    5.0120    0.0000 H   0  0  0  0  0  0  0  0  0  0  0  0
    6.3152    5.1016    0.0000 H   0  0  0  0  0  0  0  0  0  0  0  0
    8.1830    3.5127    0.0000 H   0  0  0  0  0  0  0  0  0  0  0  0
    0.3291    0.5841    0.0000 H   0  0  0  0  0  0  0  0  0  0  0  0
    9.5334    3.7973    0.0000 H   0  0  0  0  0  0  0  0  0  0  0  0
    8.9548    6.5429    0.0000 H   0  0  0  0  0  0  0  0  0  0  0  0
   11.1186    4.1314    0.0000 H   0  0  0  0  0  0  0  0  0  0  0  0
    6.9861    8.7266    0.0000 H   0  0  0  0  0  0  0  0  0  0  0  0
  1 23  1  0  0  0  0
  2 46  1  0  0  0  0
  3 30  1  0  0  0  0
  4 30  1  0  0  0  0
  5 30  1  0  0  0  0
  6 15  1  0  0  0  0
  6 16  1  0  0  0  0
  6 34  1  0  0  0  0
  7 20  1  0  0  0  0
  7 21  1  0  0  0  0
  7 41  1  0  0  0  0
  8 15  1  0  0  0  0
  8 25  2  0  0  0  0
  9 19  1  0  0  0  0
  9 20  2  0  0  0  0
 10 27  1  0  0  0  0
 10 29  2  0  0  0  0
 11 12  1  0  0  0  0
 11 13  1  0  0  0  0
 11 16  2  0  0  0  0
 12 14  1  0  0  0  0
 12 31  1  0  0  0  0
 12 32  1  0  0  0  0
 13 15  2  0  0  0  0
 13 17  1  0  0  0  0
 14 18  1  0  0  0  0
 14 19  2  0  0  0  0
 16 33  1  0  0  0  0
 17 23  2  0  0  0  0
 17 35  1  0  0  0  0
 18 22  2  0  0  0  0
 18 36  1  0  0  0  0
 19 37  1  0  0  0  0
 20 22  1  0  0  0  0
 21 24  1  0  0  0  0
 21 38  1  0  0  0  0
 21 39  1  0  0  0  0
 22 40  1  0  0  0  0
 23 25  1  0  0  0  0
 24 26  1  0  0  0  0
 24 27  2  0  0  0  0
 25 42  1  0  0  0  0
 26 28  2  0  0  0  0
 26 43  1  0  0  0  0
 27 44  1  0  0  0  0
 28 29  1  0  0  0  0
 28 45  1  0  0  0  0
 29 30  1  0  0  0  0
M  END
> <PUBCHEM_COMPOUND_CID>
73053710

> <PUBCHEM_COMPOUND_CANONICALIZED>
1

> <PUBCHEM_CACTVS_COMPLEXITY>
537

> <PUBCHEM_CACTVS_HBOND_ACCEPTOR>
7

> <PUBCHEM_CACTVS_HBOND_DONOR>
3

> <PUBCHEM_CACTVS_ROTATABLE_BOND>
5

> <PUBCHEM_CACTVS_SUBSKEYS>
AAADceB7gYAGAAAAAAAAAAAAAAAAAWAAAAAsWLAAAAAAAFgB/gAAHQIQAAAADArBHzQ9sN7JkACgAzZnZACCgCmxB6AJ2aA4ZpiIKOLB25HEIAhokALIyCcQgMAOgAAAAAAAAAAAAAAAAAAAAAAAAAAAAA==

> <PUBCHEM_IUPAC_OPENEYE_NAME>
5-[(5-chloro-1H-pyrrolo[2,3-b]pyridin-3-yl)methyl]-N-[[6-(trifluoromethyl)-3-pyridyl]methyl]pyridin-2-amine;hydrochloride

> <PUBCHEM_IUPAC_CAS_NAME>
5-[(5-chloro-1H-pyrrolo[2,3-b]pyridin-3-yl)methyl]-N-[[6-(trifluoromethyl)-3-pyridinyl]methyl]-2-pyridinamine;hydrochloride

> <PUBCHEM_IUPAC_NAME_MARKUP>
5-[(5-chloro-1<I>H</I>-pyrrolo[2,3-b]pyridin-3-yl)methyl]-<I>N</I>-[[6-(trifluoromethyl)pyridin-3-yl]methyl]pyridin-2-amine;hydrochloride

> <PUBCHEM_IUPAC_NAME>
5-[(5-chloro-1H-pyrrolo[2,3-b]pyridin-3-yl)methyl]-N-[[6-(trifluoromethyl)pyridin-3-yl]methyl]pyridin-2-amine;hydrochloride

> <PUBCHEM_IUPAC_SYSTEMATIC_NAME>
5-[(5-chloranyl-1H-pyrrolo[2,3-b]pyridin-3-yl)methyl]-N-[[6-(trifluoromethyl)pyridin-3-yl]methyl]pyridin-2-amine;hydrochloride

> <PUBCHEM_IUPAC_TRADITIONAL_NAME>
[5-[(5-chloro-1H-pyrrolo[2,3-b]pyridin-3-yl)methyl]-2-pyridyl]-[[6-(trifluoromethyl)-3-pyridyl]methyl]amine;hydrochloride

> <PUBCHEM_IUPAC_INCHI>
InChI=1S/C20H15ClF3N5.ClH/c21-15-6-16-14(10-28-19(16)29-11-15)5-12-2-4-18(26-7-12)27-9-13-1-3-17(25-8-13)20(22,23)24;/h1-4,6-8,10-11H,5,9H2,(H,26,27)(H,28,29);1H

> <PUBCHEM_IUPAC_INCHIKEY>
CJLUYLRKLUYCEK-UHFFFAOYSA-N

> <PUBCHEM_EXACT_MASS>
453.0734854

> <PUBCHEM_MOLECULAR_FORMULA>
C20H16Cl2F3N5

> <PUBCHEM_MOLECULAR_WEIGHT>
454.3

> <PUBCHEM_OPENEYE_CAN_SMILES>
C1=CC(=NC=C1CC2=CNC3=C2C=C(C=N3)Cl)NCC4=CN=C(C=C4)C(F)(F)F.Cl

> <PUBCHEM_OPENEYE_ISO_SMILES>
C1=CC(=NC=C1CC2=CNC3=C2C=C(C=N3)Cl)NCC4=CN=C(C=C4)C(F)(F)F.Cl

> <PUBCHEM_CACTVS_TPSA>
66.5

> <PUBCHEM_MONOISOTOPIC_WEIGHT>
453.0734854

> <PUBCHEM_TOTAL_CHARGE>
0

> <PUBCHEM_HEAVY_ATOM_COUNT>
30

> <PUBCHEM_ATOM_DEF_STEREO_COUNT>
0

> <PUBCHEM_ATOM_UDEF_STEREO_COUNT>
0

> <PUBCHEM_BOND_DEF_STEREO_COUNT>
0

> <PUBCHEM_BOND_UDEF_STEREO_COUNT>
0

> <PUBCHEM_ISOTOPIC_ATOM_COUNT>
0

> <PUBCHEM_COMPONENT_COUNT>
2

> <PUBCHEM_CACTVS_TAUTO_COUNT>
-1

> <PUBCHEM_COORDINATE_TYPE>
1
5
255

> <PUBCHEM_BONDANNOTATIONS>
10  27  8
10  29  8
11  13  8
11  16  8
13  15  8
13  17  8
14  18  8
14  19  8
17  23  8
18  22  8
20  22  8
23  25  8
24  26  8
24  27  8
26  28  8
28  29  8
6  15  8
6  16  8
8  15  8
8  25  8
9  19  8
9  20  8

$$$$
73442844
  -OEChem-11282412102D

 89 93  0     0  0  0  0  0  0999 V2000
    7.1874    4.6200    0.0000 S   0  0  0  0  0  0  0  0  0  0  0  0
    6.5923   14.3749    0.0000 F   0  0  0  0  0  0  0  0  0  0  0  0
    3.1350    9.3404    0.0000 O   0  0  0  0  0  0  0  0  0  0  0  0
    0.5369    8.8404    0.0000 O   0  0  0  0  0  0  0  0  0  0  0  0
   10.2470   17.5810    0.0000 O   0  0  0  0  0  0  0  0  0  0  0  0
    6.6155   12.3750    0.0000 O   0  0  0  0  0  0  0  0  0  0  0  0
    9.1729   15.9048    0.0000 O   0  0  0  0  0  0  0  0  0  0  0  0
    7.1874    5.6200    0.0000 O   0  0  0  0  0  0  0  0  0  0  0  0
    8.1874    4.6200    0.0000 O   0  0  0  0  0  0  0  0  0  0  0  0
    6.1874    4.6200    0.0000 O   0  0  0  0  0  0  0  0  0  0  0  0
   12.4835   16.2795    0.0000 N   0  0  0  0  0  0  0  0  0  0  0  0
   11.9735   17.1397    0.0000 N   0  0  0  0  0  0  0  0  0  0  0  0
   10.0562   14.4149    0.0000 N   0  0  0  0  0  0  0  0  0  0  0  0
    6.6270    9.3057    0.0000 N   0  0  0  0  0  0  0  0  0  0  0  0
   11.8230   15.5287    0.0000 C   0  0  0  0  0  0  0  0  0  0  0  0
   10.9048   15.9248    0.0000 C   0  0  0  0  0  0  0  0  0  0  0  0
   10.9979   16.9205    0.0000 C   0  0  0  0  0  0  0  0  0  0  0  0
    1.4030    9.3404    0.0000 C   0  0  0  0  0  0  0  0  0  0  0  0
   12.3697   18.0579    0.0000 C   0  0  0  0  0  0  0  0  0  0  0  0
   13.4792   16.1865    0.0000 C   0  0  0  0  0  0  0  0  0  0  0  0
    2.2690    9.8404    0.0000 C   0  0  0  0  0  0  0  0  0  0  0  0
   12.0422   14.5530    0.0000 C   0  0  0  0  0  0  0  0  0  0  0  0
   10.0446   15.4148    0.0000 C   0  0  0  0  0  0  0  0  0  0  0  0
    0.9030   10.2064    0.0000 C   0  0  0  0  0  0  0  0  0  0  0  0
    1.9030    8.4744    0.0000 C   0  0  0  0  0  0  0  0  0  0  0  0
   13.3629   18.1739    0.0000 C   0  0  0  0  0  0  0  0  0  0  0  0
   11.7726   18.8601    0.0000 C   0  0  0  0  0  0  0  0  0  0  0  0
    4.0010    9.8404    0.0000 C   0  0  0  0  0  0  0  0  0  0  0  0
    5.7331   10.8404    0.0000 C   0  0  0  0  0  0  0  0  0  0  0  0
    9.1960   13.9049    0.0000 C   0  0  0  0  0  0  0  0  0  0  0  0
    5.7331    9.8404    0.0000 C   0  0  0  0  0  0  0  0  0  0  0  0
    4.8671    9.3404    0.0000 C   0  0  0  0  0  0  0  0  0  0  0  0
   13.7591   19.0921    0.0000 C   0  0  0  0  0  0  0  0  0  0  0  0
   12.1687   19.7782    0.0000 C   0  0  0  0  0  0  0  0  0  0  0  0
    4.0010   10.8404    0.0000 C   0  0  0  0  0  0  0  0  0  0  0  0
    6.6270   11.3751    0.0000 C   0  0  0  0  0  0  0  0  0  0  0  0
    4.8671   11.3404    0.0000 C   0  0  0  0  0  0  0  0  0  0  0  0
   13.1620   19.8943    0.0000 C   0  0  0  0  0  0  0  0  0  0  0  0
    7.4756   12.8850    0.0000 C   0  0  0  0  0  0  0  0  0  0  0  0
    8.3243   14.3949    0.0000 C   0  0  0  0  0  0  0  0  0  0  0  0
    9.2076   12.9050    0.0000 C   0  0  0  0  0  0  0  0  0  0  0  0
    7.4641   13.8849    0.0000 C   0  0  0  0  0  0  0  0  0  0  0  0
    8.3474   12.3950    0.0000 C   0  0  0  0  0  0  0  0  0  0  0  0
    7.5331   10.8612    0.0000 C   0  0  0  0  0  0  0  0  0  0  0  0
    7.5331    9.8196    0.0000 C   0  0  0  0  0  0  0  0  0  0  0  0
    7.1874    3.6200    0.0000 C   0  0  0  0  0  0  0  0  0  0  0  0
    7.1874    1.6200    0.0000 C   0  0  0  0  0  0  0  0  0  0  0  0
    6.3214    3.1200    0.0000 C   0  0  0  0  0  0  0  0  0  0  0  0
    8.0535    3.1200    0.0000 C   0  0  0  0  0  0  0  0  0  0  0  0
    6.3214    2.1200    0.0000 C   0  0  0  0  0  0  0  0  0  0  0  0
    8.0535    2.1200    0.0000 C   0  0  0  0  0  0  0  0  0  0  0  0
    7.1874    0.6200    0.0000 C   0  0  0  0  0  0  0  0  0  0  0  0
    2.6675   10.3153    0.0000 H   0  0  0  0  0  0  0  0  0  0  0  0
    1.8705   10.3153    0.0000 H   0  0  0  0  0  0  0  0  0  0  0  0
   13.4215   15.5692    0.0000 H   0  0  0  0  0  0  0  0  0  0  0  0
   14.0965   16.1288    0.0000 H   0  0  0  0  0  0  0  0  0  0  0  0
   13.5368   16.8038    0.0000 H   0  0  0  0  0  0  0  0  0  0  0  0
   11.4373   14.4171    0.0000 H   0  0  0  0  0  0  0  0  0  0  0  0
   12.1781   13.9481    0.0000 H   0  0  0  0  0  0  0  0  0  0  0  0
   12.6472   14.6889    0.0000 H   0  0  0  0  0  0  0  0  0  0  0  0
    1.4399   10.5164    0.0000 H   0  0  0  0  0  0  0  0  0  0  0  0
    0.5930   10.7434    0.0000 H   0  0  0  0  0  0  0  0  0  0  0  0
    0.3660    9.8964    0.0000 H   0  0  0  0  0  0  0  0  0  0  0  0
    1.3660    8.1644    0.0000 H   0  0  0  0  0  0  0  0  0  0  0  0
    2.2130    7.9374    0.0000 H   0  0  0  0  0  0  0  0  0  0  0  0
    2.4399    8.7844    0.0000 H   0  0  0  0  0  0  0  0  0  0  0  0
   13.7331   17.6766    0.0000 H   0  0  0  0  0  0  0  0  0  0  0  0
   11.1568   18.7881    0.0000 H   0  0  0  0  0  0  0  0  0  0  0  0
   10.5967   14.1111    0.0000 H   0  0  0  0  0  0  0  0  0  0  0  0
    0.0000    9.1504    0.0000 H   0  0  0  0  0  0  0  0  0  0  0  0
    4.8671    8.7204    0.0000 H   0  0  0  0  0  0  0  0  0  0  0  0
   14.3749   19.1640    0.0000 H   0  0  0  0  0  0  0  0  0  0  0  0
   11.7985   20.2756    0.0000 H   0  0  0  0  0  0  0  0  0  0  0  0
    3.4641   11.1504    0.0000 H   0  0  0  0  0  0  0  0  0  0  0  0
    4.8671   11.9604    0.0000 H   0  0  0  0  0  0  0  0  0  0  0  0
   13.4076   20.4635    0.0000 H   0  0  0  0  0  0  0  0  0  0  0  0
    8.3171   15.0148    0.0000 H   0  0  0  0  0  0  0  0  0  0  0  0
    9.7481   12.6012    0.0000 H   0  0  0  0  0  0  0  0  0  0  0  0
    8.3546   11.7751    0.0000 H   0  0  0  0  0  0  0  0  0  0  0  0
    8.0688   11.1733    0.0000 H   0  0  0  0  0  0  0  0  0  0  0  0
    8.0688    9.5075    0.0000 H   0  0  0  0  0  0  0  0  0  0  0  0
    5.7845    3.4300    0.0000 H   0  0  0  0  0  0  0  0  0  0  0  0
    8.5904    3.4300    0.0000 H   0  0  0  0  0  0  0  0  0  0  0  0
    5.7845    1.8100    0.0000 H   0  0  0  0  0  0  0  0  0  0  0  0
    8.5904    1.8100    0.0000 H   0  0  0  0  0  0  0  0  0  0  0  0
    6.5674    0.6200    0.0000 H   0  0  0  0  0  0  0  0  0  0  0  0
    7.1874    0.0000    0.0000 H   0  0  0  0  0  0  0  0  0  0  0  0
    7.8074    0.6200    0.0000 H   0  0  0  0  0  0  0  0  0  0  0  0
    7.7244    5.9300    0.0000 H   0  0  0  0  0  0  0  0  0  0  0  0
  1  8  1  0  0  0  0
  1  9  2  0  0  0  0
  1 10  2  0  0  0  0
  1 46  1  0  0  0  0
  2 42  1  0  0  0  0
  3 21  1  0  0  0  0
  3 28  1  0  0  0  0
  4 18  1  0  0  0  0
  4 70  1  0  0  0  0
  5 17  2  0  0  0  0
  6 36  1  0  0  0  0
  6 39  1  0  0  0  0
  7 23  2  0  0  0  0
  8 89  1  0  0  0  0
 11 12  1  0  0  0  0
 11 15  1  0  0  0  0
 11 20  1  0  0  0  0
 12 17  1  0  0  0  0
 12 19  1  0  0  0  0
 13 23  1  0  0  0  0
 13 30  1  0  0  0  0
 13 69  1  0  0  0  0
 14 31  2  0  0  0  0
 14 45  1  0  0  0  0
 15 16  2  0  0  0  0
 15 22  1  0  0  0  0
 16 17  1  0  0  0  0
 16 23  1  0  0  0  0
 18 21  1  0  0  0  0
 18 24  1  0  0  0  0
 18 25  1  0  0  0  0
 19 26  2  0  0  0  0
 19 27  1  0  0  0  0
 20 55  1  0  0  0  0
 20 56  1  0  0  0  0
 20 57  1  0  0  0  0
 21 53  1  0  0  0  0
 21 54  1  0  0  0  0
 22 58  1  0  0  0  0
 22 59  1  0  0  0  0
 22 60  1  0  0  0  0
 24 61  1  0  0  0  0
 24 62  1  0  0  0  0
 24 63  1  0  0  0  0
 25 64  1  0  0  0  0
 25 65  1  0  0  0  0
 25 66  1  0  0  0  0
 26 33  1  0  0  0  0
 26 67  1  0  0  0  0
 27 34  2  0  0  0  0
 27 68  1  0  0  0  0
 28 32  2  0  0  0  0
 28 35  1  0  0  0  0
 29 31  1  0  0  0  0
 29 36  2  0  0  0  0
 29 37  1  0  0  0  0
 30 40  2  0  0  0  0
 30 41  1  0  0  0  0
 31 32  1  0  0  0  0
 32 71  1  0  0  0  0
 33 38  2  0  0  0  0
 33 72  1  0  0  0  0
 34 38  1  0  0  0  0
 34 73  1  0  0  0  0
 35 37  2  0  0  0  0
 35 74  1  0  0  0  0
 36 44  1  0  0  0  0
 37 75  1  0  0  0  0
 38 76  1  0  0  0  0
 39 42  2  0  0  0  0
 39 43  1  0  0  0  0
 40 42  1  0  0  0  0
 40 77  1  0  0  0  0
 41 43  2  0  0  0  0
 41 78  1  0  0  0  0
 43 79  1  0  0  0  0
 44 45  2  0  0  0  0
 44 80  1  0  0  0  0
 45 81  1  0  0  0  0
 46 48  2  0  0  0  0
 46 49  1  0  0  0  0
 47 50  2  0  0  0  0
 47 51  1  0  0  0  0
 47 52  1  0  0  0  0
 48 50  1  0  0  0  0
 48 82  1  0  0  0  0
 49 51  2  0  0  0  0
 49 83  1  0  0  0  0
 50 84  1  0  0  0  0
 51 85  1  0  0  0  0
 52 86  1  0  0  0  0
 52 87  1  0  0  0  0
 52 88  1  0  0  0  0
M  END
> <PUBCHEM_COMPOUND_CID>
73442844

> <PUBCHEM_COMPOUND_CANONICALIZED>
1

> <PUBCHEM_CACTVS_COMPLEXITY>
1190

> <PUBCHEM_CACTVS_HBOND_ACCEPTOR>
11

> <PUBCHEM_CACTVS_HBOND_DONOR>
3

> <PUBCHEM_CACTVS_ROTATABLE_BOND>
9

> <PUBCHEM_CACTVS_SUBSKEYS>
AAADcfB/vQBAAAAAAAAAAAAAAAAAAQAAAAA8YMGCAAAAAACx9AAAHwQYCAAADEzh3g4+x/LIFoKoAzV3VHDCjGAxIiAa2Dk+bNgNJurM8ZuGOCjm1BnL6Uew8K8OMEAAAgACAABggAAEAAQAAAAAAAAAAA==

> <PUBCHEM_IUPAC_OPENEYE_NAME>
N-[3-fluoro-4-[[7-(2-hydroxy-2-methyl-propoxy)-4-quinolyl]oxy]phenyl]-1,5-dimethyl-3-oxo-2-phenyl-pyrazole-4-carboxamide;4-methylbenzenesulfonic acid

> <PUBCHEM_IUPAC_CAS_NAME>
N-[3-fluoro-4-[[7-(2-hydroxy-2-methylpropoxy)-4-quinolinyl]oxy]phenyl]-1,5-dimethyl-3-oxo-2-phenyl-4-pyrazolecarboxamide;4-methylbenzenesulfonic acid

> <PUBCHEM_IUPAC_NAME_MARKUP>
<I>N</I>-[3-fluoro-4-[7-(2-hydroxy-2-methylpropoxy)quinolin-4-yl]oxyphenyl]-1,5-dimethyl-3-oxo-2-phenylpyrazole-4-carboxamide;4-methylbenzenesulfonic acid

> <PUBCHEM_IUPAC_NAME>
N-[3-fluoro-4-[7-(2-hydroxy-2-methylpropoxy)quinolin-4-yl]oxyphenyl]-1,5-dimethyl-3-oxo-2-phenylpyrazole-4-carboxamide;4-methylbenzenesulfonic acid

> <PUBCHEM_IUPAC_SYSTEMATIC_NAME>
N-[3-fluoranyl-4-[7-(2-methyl-2-oxidanyl-propoxy)quinolin-4-yl]oxy-phenyl]-1,5-dimethyl-3-oxidanylidene-2-phenyl-pyrazole-4-carboxamide;4-methylbenzenesulfonic acid

> <PUBCHEM_IUPAC_TRADITIONAL_NAME>
N-[3-fluoro-4-[[7-(2-hydroxy-2-methyl-propoxy)-4-quinolyl]oxy]phenyl]-3-keto-1,5-dimethyl-2-phenyl-3-pyrazoline-4-carboxamide;tosylic acid

> <PUBCHEM_IUPAC_INCHI>
InChI=1S/C31H29FN4O5.C7H8O3S/c1-19-28(30(38)36(35(19)4)21-8-6-5-7-9-21)29(37)34-20-10-13-27(24(32)16-20)41-26-14-15-33-25-17-22(11-12-23(25)26)40-18-31(2,3)39;1-6-2-4-7(5-3-6)11(8,9)10/h5-17,39H,18H2,1-4H3,(H,34,37);2-5H,1H3,(H,8,9,10)

> <PUBCHEM_IUPAC_INCHIKEY>
NAUYISNCVNUUDK-UHFFFAOYSA-N

> <PUBCHEM_EXACT_MASS>
728.23161349

> <PUBCHEM_MOLECULAR_FORMULA>
C38H37FN4O8S

> <PUBCHEM_MOLECULAR_WEIGHT>
728.8

> <PUBCHEM_OPENEYE_CAN_SMILES>
CC1=CC=C(C=C1)S(=O)(=O)O.CC1=C(C(=O)N(N1C)C2=CC=CC=C2)C(=O)NC3=CC(=C(C=C3)OC4=C5C=CC(=CC5=NC=C4)OCC(C)(C)O)F

> <PUBCHEM_OPENEYE_ISO_SMILES>
CC1=CC=C(C=C1)S(=O)(=O)O.CC1=C(C(=O)N(N1C)C2=CC=CC=C2)C(=O)NC3=CC(=C(C=C3)OC4=C5C=CC(=CC5=NC=C4)OCC(C)(C)O)F

> <PUBCHEM_CACTVS_TPSA>
167

> <PUBCHEM_MONOISOTOPIC_WEIGHT>
728.23161349

> <PUBCHEM_TOTAL_CHARGE>
0

> <PUBCHEM_HEAVY_ATOM_COUNT>
52

> <PUBCHEM_ATOM_DEF_STEREO_COUNT>
0

> <PUBCHEM_ATOM_UDEF_STEREO_COUNT>
0

> <PUBCHEM_BOND_DEF_STEREO_COUNT>
0

> <PUBCHEM_BOND_UDEF_STEREO_COUNT>
0

> <PUBCHEM_ISOTOPIC_ATOM_COUNT>
0

> <PUBCHEM_COMPONENT_COUNT>
2

> <PUBCHEM_CACTVS_TAUTO_COUNT>
-1

> <PUBCHEM_COORDINATE_TYPE>
1
5
255

> <PUBCHEM_BONDANNOTATIONS>
11  12  8
11  15  8
12  17  8
14  31  8
14  45  8
15  16  8
16  17  8
19  26  8
19  27  8
26  33  8
27  34  8
28  32  8
28  35  8
29  31  8
29  36  8
29  37  8
30  40  8
30  41  8
31  32  8
33  38  8
34  38  8
35  37  8
36  44  8
39  42  8
39  43  8
40  42  8
41  43  8
44  45  8
46  48  8
46  49  8
47  50  8
47  51  8
48  50  8
49  51  8

$$$$
74892828
  -OEChem-11282412102D

 69 71  0     0  0  0  0  0  0999 V2000
    7.0321    3.6200    0.0000 S   0  0  0  0  0  0  0  0  0  0  0  0
    3.1350   14.7400    0.0000 F   0  0  0  0  0  0  0  0  0  0  0  0
   10.0632   14.7400    0.0000 O   0  0  0  0  0  0  0  0  0  0  0  0
   12.6613   14.2400    0.0000 O   0  0  0  0  0  0  0  0  0  0  0  0
    7.0321    4.6200    0.0000 O   0  0  0  0  0  0  0  0  0  0  0  0
    2.2690    8.2400    0.0000 O   0  0  0  0  0  0  0  0  0  0  0  0
    8.0321    3.6200    0.0000 O   0  0  0  0  0  0  0  0  0  0  0  0
    6.0321    3.6200    0.0000 O   0  0  0  0  0  0  0  0  0  0  0  0
    3.1350   12.7400    0.0000 N   0  0  0  0  0  0  0  0  0  0  0  0
    6.5991   12.7400    0.0000 N   0  0  0  0  0  0  0  0  0  0  0  0
    4.8671   12.7400    0.0000 N   0  0  0  0  0  0  0  0  0  0  0  0
    1.4030    9.7400    0.0000 N   0  0  0  0  0  0  0  0  0  0  0  0
    5.7331   14.2400    0.0000 N   0  0  0  0  0  0  0  0  0  0  0  0
    3.1350   11.7400    0.0000 C   0  0  0  0  0  0  0  0  0  0  0  0
    7.4651   13.2400    0.0000 C   0  0  0  0  0  0  0  0  0  0  0  0
    2.2690   11.2400    0.0000 C   0  0  0  0  0  0  0  0  0  0  0  0
    2.2690   10.2400    0.0000 C   0  0  0  0  0  0  0  0  0  0  0  0
    9.1972   14.2400    0.0000 C   0  0  0  0  0  0  0  0  0  0  0  0
    4.0010   13.2400    0.0000 C   0  0  0  0  0  0  0  0  0  0  0  0
    7.4651   14.2400    0.0000 C   0  0  0  0  0  0  0  0  0  0  0  0
    8.3312   12.7400    0.0000 C   0  0  0  0  0  0  0  0  0  0  0  0
    4.0010   11.2400    0.0000 C   0  0  0  0  0  0  0  0  0  0  0  0
    5.7331   13.2400    0.0000 C   0  0  0  0  0  0  0  0  0  0  0  0
    8.3312   14.7400    0.0000 C   0  0  0  0  0  0  0  0  0  0  0  0
    9.1972   13.2400    0.0000 C   0  0  0  0  0  0  0  0  0  0  0  0
    3.1350    9.7400    0.0000 C   0  0  0  0  0  0  0  0  0  0  0  0
    4.0010   10.2400    0.0000 C   0  0  0  0  0  0  0  0  0  0  0  0
   10.9292   14.2400    0.0000 C   0  0  0  0  0  0  0  0  0  0  0  0
    4.0010   14.2400    0.0000 C   0  0  0  0  0  0  0  0  0  0  0  0
   11.7953   14.7400    0.0000 C   0  0  0  0  0  0  0  0  0  0  0  0
    4.8671   14.7400    0.0000 C   0  0  0  0  0  0  0  0  0  0  0  0
    7.0321    2.6200    0.0000 C   0  0  0  0  0  0  0  0  0  0  0  0
    1.4030    8.7400    0.0000 C   0  0  0  0  0  0  0  0  0  0  0  0
    6.1661    2.1200    0.0000 C   0  0  0  0  0  0  0  0  0  0  0  0
    7.8982    2.1200    0.0000 C   0  0  0  0  0  0  0  0  0  0  0  0
    6.1661    1.1200    0.0000 C   0  0  0  0  0  0  0  0  0  0  0  0
    7.8982    1.1200    0.0000 C   0  0  0  0  0  0  0  0  0  0  0  0
    7.0321    0.6200    0.0000 C   0  0  0  0  0  0  0  0  0  0  0  0
    0.5369    8.2400    0.0000 C   0  0  0  0  0  0  0  0  0  0  0  0
   13.5273   14.7400    0.0000 C   0  0  0  0  0  0  0  0  0  0  0  0
    0.5369    7.2400    0.0000 C   0  0  0  0  0  0  0  0  0  0  0  0
    1.7320   11.5500    0.0000 H   0  0  0  0  0  0  0  0  0  0  0  0
    2.5981   13.0500    0.0000 H   0  0  0  0  0  0  0  0  0  0  0  0
    6.5991   12.1200    0.0000 H   0  0  0  0  0  0  0  0  0  0  0  0
    6.9282   14.5500    0.0000 H   0  0  0  0  0  0  0  0  0  0  0  0
    8.3312   12.1200    0.0000 H   0  0  0  0  0  0  0  0  0  0  0  0
    4.5380   11.5500    0.0000 H   0  0  0  0  0  0  0  0  0  0  0  0
    8.3312   15.3600    0.0000 H   0  0  0  0  0  0  0  0  0  0  0  0
    9.7341   12.9300    0.0000 H   0  0  0  0  0  0  0  0  0  0  0  0
    3.1350    9.1200    0.0000 H   0  0  0  0  0  0  0  0  0  0  0  0
    4.5380    9.9300    0.0000 H   0  0  0  0  0  0  0  0  0  0  0  0
   10.5307   13.7651    0.0000 H   0  0  0  0  0  0  0  0  0  0  0  0
   11.3278   13.7651    0.0000 H   0  0  0  0  0  0  0  0  0  0  0  0
    0.8660   10.0500    0.0000 H   0  0  0  0  0  0  0  0  0  0  0  0
   12.1938   15.2149    0.0000 H   0  0  0  0  0  0  0  0  0  0  0  0
   11.3967   15.2149    0.0000 H   0  0  0  0  0  0  0  0  0  0  0  0
    4.8671   15.3600    0.0000 H   0  0  0  0  0  0  0  0  0  0  0  0
    5.6292    2.4300    0.0000 H   0  0  0  0  0  0  0  0  0  0  0  0
    8.4351    2.4300    0.0000 H   0  0  0  0  0  0  0  0  0  0  0  0
    5.6292    0.8100    0.0000 H   0  0  0  0  0  0  0  0  0  0  0  0
    8.4351    0.8100    0.0000 H   0  0  0  0  0  0  0  0  0  0  0  0
    7.0321    0.0000    0.0000 H   0  0  0  0  0  0  0  0  0  0  0  0
    0.0000    8.5500    0.0000 H   0  0  0  0  0  0  0  0  0  0  0  0
   13.8373   14.2031    0.0000 H   0  0  0  0  0  0  0  0  0  0  0  0
   14.0643   15.0500    0.0000 H   0  0  0  0  0  0  0  0  0  0  0  0
   13.2173   15.2769    0.0000 H   0  0  0  0  0  0  0  0  0  0  0  0
    7.5691    4.9300    0.0000 H   0  0  0  0  0  0  0  0  0  0  0  0
    0.0000    6.9300    0.0000 H   0  0  0  0  0  0  0  0  0  0  0  0
    1.0739    6.9300    0.0000 H   0  0  0  0  0  0  0  0  0  0  0  0
  1  5  1  0  0  0  0
  1  7  2  0  0  0  0
  1  8  2  0  0  0  0
  1 32  1  0  0  0  0
  2 29  1  0  0  0  0
  3 18  1  0  0  0  0
  3 28  1  0  0  0  0
  4 30  1  0  0  0  0
  4 40  1  0  0  0  0
  5 67  1  0  0  0  0
  6 33  2  0  0  0  0
  9 14  1  0  0  0  0
  9 19  1  0  0  0  0
  9 43  1  0  0  0  0
 10 15  1  0  0  0  0
 10 23  1  0  0  0  0
 10 44  1  0  0  0  0
 11 19  2  0  0  0  0
 11 23  1  0  0  0  0
 12 17  1  0  0  0  0
 12 33  1  0  0  0  0
 12 54  1  0  0  0  0
 13 23  2  0  0  0  0
 13 31  1  0  0  0  0
 14 16  2  0  0  0  0
 14 22  1  0  0  0  0
 15 20  2  0  0  0  0
 15 21  1  0  0  0  0
 16 17  1  0  0  0  0
 16 42  1  0  0  0  0
 17 26  2  0  0  0  0
 18 24  2  0  0  0  0
 18 25  1  0  0  0  0
 19 29  1  0  0  0  0
 20 24  1  0  0  0  0
 20 45  1  0  0  0  0
 21 25  2  0  0  0  0
 21 46  1  0  0  0  0
 22 27  2  0  0  0  0
 22 47  1  0  0  0  0
 24 48  1  0  0  0  0
 25 49  1  0  0  0  0
 26 27  1  0  0  0  0
 26 50  1  0  0  0  0
 27 51  1  0  0  0  0
 28 30  1  0  0  0  0
 28 52  1  0  0  0  0
 28 53  1  0  0  0  0
 29 31  2  0  0  0  0
 30 55  1  0  0  0  0
 30 56  1  0  0  0  0
 31 57  1  0  0  0  0
 32 34  2  0  0  0  0
 32 35  1  0  0  0  0
 33 39  1  0  0  0  0
 34 36  1  0  0  0  0
 34 58  1  0  0  0  0
 35 37  2  0  0  0  0
 35 59  1  0  0  0  0
 36 38  2  0  0  0  0
 36 60  1  0  0  0  0
 37 38  1  0  0  0  0
 37 61  1  0  0  0  0
 38 62  1  0  0  0  0
 39 41  2  0  0  0  0
 39 63  1  0  0  0  0
 40 64  1  0  0  0  0
 40 65  1  0  0  0  0
 40 66  1  0  0  0  0
 41 68  1  0  0  0  0
 41 69  1  0  0  0  0
M  END
> <PUBCHEM_COMPOUND_CID>
74892828

> <PUBCHEM_COMPOUND_CANONICALIZED>
1

> <PUBCHEM_CACTVS_COMPLEXITY>
745

> <PUBCHEM_CACTVS_HBOND_ACCEPTOR>
11

> <PUBCHEM_CACTVS_HBOND_DONOR>
4

> <PUBCHEM_CACTVS_ROTATABLE_BOND>
11

> <PUBCHEM_CACTVS_SUBSKEYS>
AAADceB7uQBAAAAAAAAAAAAAAAAAAAAAAAA8YMEAAAAAAAAB1AAAHwQQCAAACAzh0g4/95bIFIKoADd3dHDCiGkxIqAJ2DgubNiNLuLE+duGPCjs1BPK6KewQAAAAEAAAAQAAAAAgAAACAAAAAAAAAAAAA==

> <PUBCHEM_IUPAC_OPENEYE_NAME>
benzenesulfonic acid;N-[3-[[5-fluoro-2-[4-(2-methoxyethoxy)anilino]pyrimidin-4-yl]amino]phenyl]prop-2-enamide

> <PUBCHEM_IUPAC_CAS_NAME>
benzenesulfonic acid;N-[3-[[5-fluoro-2-[4-(2-methoxyethoxy)anilino]-4-pyrimidinyl]amino]phenyl]-2-propenamide

> <PUBCHEM_IUPAC_NAME_MARKUP>
benzenesulfonic acid;<I>N</I>-[3-[[5-fluoro-2-[4-(2-methoxyethoxy)anilino]pyrimidin-4-yl]amino]phenyl]prop-2-enamide

> <PUBCHEM_IUPAC_NAME>
benzenesulfonic acid;N-[3-[[5-fluoro-2-[4-(2-methoxyethoxy)anilino]pyrimidin-4-yl]amino]phenyl]prop-2-enamide

> <PUBCHEM_IUPAC_SYSTEMATIC_NAME>
benzenesulfonic acid;N-[3-[[5-fluoranyl-2-[[4-(2-methoxyethoxy)phenyl]amino]pyrimidin-4-yl]amino]phenyl]prop-2-enamide

> <PUBCHEM_IUPAC_TRADITIONAL_NAME>
besylic acid;N-[3-[[5-fluoro-2-[4-(2-methoxyethoxy)anilino]pyrimidin-4-yl]amino]phenyl]acrylamide

> <PUBCHEM_IUPAC_INCHI>
InChI=1S/C22H22FN5O3.C6H6O3S/c1-3-20(29)25-16-5-4-6-17(13-16)26-21-19(23)14-24-22(28-21)27-15-7-9-18(10-8-15)31-12-11-30-2;7-10(8,9)6-4-2-1-3-5-6/h3-10,13-14H,1,11-12H2,2H3,(H,25,29)(H2,24,26,27,28);1-5H,(H,7,8,9)

> <PUBCHEM_IUPAC_INCHIKEY>
ABSXPNGWJFAPRT-UHFFFAOYSA-N

> <PUBCHEM_EXACT_MASS>
581.17443297

> <PUBCHEM_MOLECULAR_FORMULA>
C28H28FN5O6S

> <PUBCHEM_MOLECULAR_WEIGHT>
581.6

> <PUBCHEM_OPENEYE_CAN_SMILES>
COCCOC1=CC=C(C=C1)NC2=NC=C(C(=N2)NC3=CC(=CC=C3)NC(=O)C=C)F.C1=CC=C(C=C1)S(=O)(=O)O

> <PUBCHEM_OPENEYE_ISO_SMILES>
COCCOC1=CC=C(C=C1)NC2=NC=C(C(=N2)NC3=CC(=CC=C3)NC(=O)C=C)F.C1=CC=C(C=C1)S(=O)(=O)O

> <PUBCHEM_CACTVS_TPSA>
160

> <PUBCHEM_MONOISOTOPIC_WEIGHT>
581.17443297

> <PUBCHEM_TOTAL_CHARGE>
0

> <PUBCHEM_HEAVY_ATOM_COUNT>
41

> <PUBCHEM_ATOM_DEF_STEREO_COUNT>
0

> <PUBCHEM_ATOM_UDEF_STEREO_COUNT>
0

> <PUBCHEM_BOND_DEF_STEREO_COUNT>
0

> <PUBCHEM_BOND_UDEF_STEREO_COUNT>
0

> <PUBCHEM_ISOTOPIC_ATOM_COUNT>
0

> <PUBCHEM_COMPONENT_COUNT>
2

> <PUBCHEM_CACTVS_TAUTO_COUNT>
18

> <PUBCHEM_COORDINATE_TYPE>
1
5
255

> <PUBCHEM_BONDANNOTATIONS>
11  19  8
11  23  8
13  23  8
13  31  8
14  16  8
14  22  8
15  20  8
15  21  8
16  17  8
17  26  8
18  24  8
18  25  8
19  29  8
20  24  8
21  25  8
22  27  8
26  27  8
29  31  8
32  34  8
32  35  8
34  36  8
35  37  8
36  38  8
37  38  8

$$$$
118980937
  -OEChem-11282412102D

 67 69  0     1  0  0  0  0  0999 V2000
    4.9407    6.8494    0.0000 F   0  0  0  0  0  0  0  0  0  0  0  0
    7.0636    3.0942    0.0000 O   0  0  0  0  0  0  0  0  0  0  0  0
    4.4783   10.2922    0.0000 O   0  0  0  0  0  0  0  0  0  0  0  0
    5.7103   11.1583    0.0000 O   0  0  0  0  0  0  0  0  0  0  0  0
    4.8443   12.6583    0.0000 O   0  0  0  0  0  0  0  0  0  0  0  0
    2.2462    9.1583    0.0000 O   0  0  0  0  0  0  0  0  0  0  0  0
    1.9783   12.8903    0.0000 O   0  0  0  0  0  0  0  0  0  0  0  0
    3.9783    9.1583    0.0000 O   0  0  0  0  0  0  0  0  0  0  0  0
    1.9783   11.1583    0.0000 O   0  0  0  0  0  0  0  0  0  0  0  0
    3.2087    5.8494    0.0000 N   0  0  0  0  0  0  0  0  0  0  0  0
    1.4766    6.8494    0.0000 N   0  0  0  0  0  0  0  0  0  0  0  0
    4.0747    4.3494    0.0000 N   0  0  0  0  0  0  0  0  0  0  0  0
    7.3366    4.8494    0.0000 N   0  0  0  0  0  0  0  0  0  0  0  0
    4.4407    1.3106    0.0000 N   0  0  0  0  0  0  0  0  0  0  0  0
    5.4407    1.3106    0.0000 N   0  0  0  0  0  0  0  0  0  0  0  0
    2.3426    5.3494    0.0000 C   0  0  1  0  0  0  0  0  0  0  0  0
    1.4766    5.8494    0.0000 C   0  0  2  0  0  0  0  0  0  0  0  0
    2.3426    4.3494    0.0000 C   0  0  0  0  0  0  0  0  0  0  0  0
    0.6106    5.3494    0.0000 C   0  0  0  0  0  0  0  0  0  0  0  0
    1.4766    3.8494    0.0000 C   0  0  0  0  0  0  0  0  0  0  0  0
    0.6106    4.3494    0.0000 C   0  0  0  0  0  0  0  0  0  0  0  0
    4.0747    5.3494    0.0000 C   0  0  0  0  0  0  0  0  0  0  0  0
    4.9407    5.8494    0.0000 C   0  0  0  0  0  0  0  0  0  0  0  0
    5.8067    5.3494    0.0000 C   0  0  0  0  0  0  0  0  0  0  0  0
    5.8067    4.3494    0.0000 C   0  0  0  0  0  0  0  0  0  0  0  0
    4.9407    3.8494    0.0000 C   0  0  0  0  0  0  0  0  0  0  0  0
    6.7530    5.6542    0.0000 C   0  0  0  0  0  0  0  0  0  0  0  0
    6.7530    4.0447    0.0000 C   0  0  0  0  0  0  0  0  0  0  0  0
    4.9407    2.8494    0.0000 C   0  0  0  0  0  0  0  0  0  0  0  0
    4.1317    2.2617    0.0000 C   0  0  0  0  0  0  0  0  0  0  0  0
    5.7497    2.2617    0.0000 C   0  0  0  0  0  0  0  0  0  0  0  0
    3.9783   11.1583    0.0000 C   0  0  0  0  0  0  0  0  0  0  0  0
    3.1123   10.6583    0.0000 C   0  0  0  0  0  0  0  0  0  0  0  0
    3.4783   12.0243    0.0000 C   0  0  0  0  0  0  0  0  0  0  0  0
    3.8529    0.5016    0.0000 C   0  0  0  0  0  0  0  0  0  0  0  0
    4.8443   11.6583    0.0000 C   0  0  0  0  0  0  0  0  0  0  0  0
    3.1123    9.6583    0.0000 C   0  0  0  0  0  0  0  0  0  0  0  0
    2.4783   12.0243    0.0000 C   0  0  0  0  0  0  0  0  0  0  0  0
    2.8796    5.0395    0.0000 H   0  0  0  0  0  0  0  0  0  0  0  0
    0.9397    6.1594    0.0000 H   0  0  0  0  0  0  0  0  0  0  0  0
    2.5547    3.7668    0.0000 H   0  0  0  0  0  0  0  0  0  0  0  0
    2.9532    4.4571    0.0000 H   0  0  0  0  0  0  0  0  0  0  0  0
    0.3985    5.9321    0.0000 H   0  0  0  0  0  0  0  0  0  0  0  0
    0.0000    5.2418    0.0000 H   0  0  0  0  0  0  0  0  0  0  0  0
    1.0781    3.3745    0.0000 H   0  0  0  0  0  0  0  0  0  0  0  0
    1.8751    3.3745    0.0000 H   0  0  0  0  0  0  0  0  0  0  0  0
    0.0000    4.4571    0.0000 H   0  0  0  0  0  0  0  0  0  0  0  0
    0.3985    3.7668    0.0000 H   0  0  0  0  0  0  0  0  0  0  0  0
    3.2087    6.4694    0.0000 H   0  0  0  0  0  0  0  0  0  0  0  0
    0.9397    7.1594    0.0000 H   0  0  0  0  0  0  0  0  0  0  0  0
    2.0135    7.1594    0.0000 H   0  0  0  0  0  0  0  0  0  0  0  0
    7.2903    5.9634    0.0000 H   0  0  0  0  0  0  0  0  0  0  0  0
    6.5019    6.2211    0.0000 H   0  0  0  0  0  0  0  0  0  0  0  0
    7.9566    4.8494    0.0000 H   0  0  0  0  0  0  0  0  0  0  0  0
    3.5420    2.4532    0.0000 H   0  0  0  0  0  0  0  0  0  0  0  0
    6.3394    2.4532    0.0000 H   0  0  0  0  0  0  0  0  0  0  0  0
    2.9002   11.2409    0.0000 H   0  0  0  0  0  0  0  0  0  0  0  0
    2.5017   10.5506    0.0000 H   0  0  0  0  0  0  0  0  0  0  0  0
    4.0609   12.2363    0.0000 H   0  0  0  0  0  0  0  0  0  0  0  0
    3.3706   12.6349    0.0000 H   0  0  0  0  0  0  0  0  0  0  0  0
    3.3513    0.8660    0.0000 H   0  0  0  0  0  0  0  0  0  0  0  0
    3.4885    0.0000    0.0000 H   0  0  0  0  0  0  0  0  0  0  0  0
    4.3545    0.1372    0.0000 H   0  0  0  0  0  0  0  0  0  0  0  0
    4.1683    9.7553    0.0000 H   0  0  0  0  0  0  0  0  0  0  0  0
    6.2473   11.4683    0.0000 H   0  0  0  0  0  0  0  0  0  0  0  0
    1.7093    9.4683    0.0000 H   0  0  0  0  0  0  0  0  0  0  0  0
    2.2883   13.4273    0.0000 H   0  0  0  0  0  0  0  0  0  0  0  0
  1 23  1  0  0  0  0
  2 28  2  0  0  0  0
  3 32  1  0  0  0  0
  3 64  1  0  0  0  0
  4 36  1  0  0  0  0
  4 65  1  0  0  0  0
  5 36  2  0  0  0  0
  6 37  1  0  0  0  0
  6 66  1  0  0  0  0
  7 38  1  0  0  0  0
  7 67  1  0  0  0  0
  8 37  2  0  0  0  0
  9 38  2  0  0  0  0
 16 10  1  6  0  0  0
 10 22  1  0  0  0  0
 10 49  1  0  0  0  0
 17 11  1  6  0  0  0
 11 50  1  0  0  0  0
 11 51  1  0  0  0  0
 12 22  1  0  0  0  0
 12 26  2  0  0  0  0
 13 27  1  0  0  0  0
 13 28  1  0  0  0  0
 13 54  1  0  0  0  0
 14 15  1  0  0  0  0
 14 30  1  0  0  0  0
 14 35  1  0  0  0  0
 15 31  2  0  0  0  0
 16 17  1  0  0  0  0
 16 18  1  0  0  0  0
 16 39  1  0  0  0  0
 17 19  1  0  0  0  0
 17 40  1  0  0  0  0
 18 20  1  0  0  0  0
 18 41  1  0  0  0  0
 18 42  1  0  0  0  0
 19 21  1  0  0  0  0
 19 43  1  0  0  0  0
 19 44  1  0  0  0  0
 20 21  1  0  0  0  0
 20 45  1  0  0  0  0
 20 46  1  0  0  0  0
 21 47  1  0  0  0  0
 21 48  1  0  0  0  0
 22 23  2  0  0  0  0
 23 24  1  0  0  0  0
 24 25  2  0  0  0  0
 24 27  1  0  0  0  0
 25 26  1  0  0  0  0
 25 28  1  0  0  0  0
 26 29  1  0  0  0  0
 27 52  1  0  0  0  0
 27 53  1  0  0  0  0
 29 30  2  0  0  0  0
 29 31  1  0  0  0  0
 30 55  1  0  0  0  0
 31 56  1  0  0  0  0
 32 33  1  0  0  0  0
 32 34  1  0  0  0  0
 32 36  1  0  0  0  0
 33 37  1  0  0  0  0
 33 57  1  0  0  0  0
 33 58  1  0  0  0  0
 34 38  1  0  0  0  0
 34 59  1  0  0  0  0
 34 60  1  0  0  0  0
 35 61  1  0  0  0  0
 35 62  1  0  0  0  0
 35 63  1  0  0  0  0
M  END
> <PUBCHEM_COMPOUND_CID>
118980937

> <PUBCHEM_COMPOUND_CANONICALIZED>
1

> <PUBCHEM_CACTVS_COMPLEXITY>
735

> <PUBCHEM_CACTVS_HBOND_ACCEPTOR>
13

> <PUBCHEM_CACTVS_HBOND_DONOR>
7

> <PUBCHEM_CACTVS_ROTATABLE_BOND>
8

> <PUBCHEM_CACTVS_SUBSKEYS>
AAADceB7vQAAAAAAAAAAAAAAAAAAAWLAAAA8QAAAAAAAAFgB4AAAHwAYCAAADGzBngwvuJLIEgCqAxf3fAKShCk1gCAR2KFoRNiJYP7A3dGU5YhtvgLJyWffp0AOgAAAAAAAAAAAAAAAAAAAQAAAAAAAAA==

> <PUBCHEM_IUPAC_OPENEYE_NAME>
6-[[(1R,2S)-2-aminocyclohexyl]amino]-7-fluoro-4-(1-methylpyrazol-4-yl)-1,2-dihydropyrrolo[3,4-c]pyridin-3-one;citric acid

> <PUBCHEM_IUPAC_CAS_NAME>
6-[[(1R,2S)-2-aminocyclohexyl]amino]-7-fluoro-4-(1-methyl-4-pyrazolyl)-1,2-dihydropyrrolo[3,4-c]pyridin-3-one;2-hydroxypropane-1,2,3-tricarboxylic acid

> <PUBCHEM_IUPAC_NAME_MARKUP>
6-[[(1<I>R</I>,2<I>S</I>)-2-aminocyclohexyl]amino]-7-fluoro-4-(1-methylpyrazol-4-yl)-1,2-dihydropyrrolo[3,4-c]pyridin-3-one;2-hydroxypropane-1,2,3-tricarboxylic acid

> <PUBCHEM_IUPAC_NAME>
6-[[(1R,2S)-2-aminocyclohexyl]amino]-7-fluoro-4-(1-methylpyrazol-4-yl)-1,2-dihydropyrrolo[3,4-c]pyridin-3-one;2-hydroxypropane-1,2,3-tricarboxylic acid

> <PUBCHEM_IUPAC_SYSTEMATIC_NAME>
6-[[(1R,2S)-2-azanylcyclohexyl]amino]-7-fluoranyl-4-(1-methylpyrazol-4-yl)-1,2-dihydropyrrolo[3,4-c]pyridin-3-one;2-oxidanylpropane-1,2,3-tricarboxylic acid

> <PUBCHEM_IUPAC_TRADITIONAL_NAME>
6-[[(1R,2S)-2-aminocyclohexyl]amino]-7-fluoro-4-(1-methylpyrazol-4-yl)-1,2-dihydropyrrolo[3,4-c]pyridin-3-one;citric acid

> <PUBCHEM_IUPAC_INCHI>
InChI=1S/C17H21FN6O.C6H8O7/c1-24-8-9(6-21-24)15-13-10(7-20-17(13)25)14(18)16(23-15)22-12-5-3-2-4-11(12)19;7-3(8)1-6(13,5(11)12)2-4(9)10/h6,8,11-12H,2-5,7,19H2,1H3,(H,20,25)(H,22,23);13H,1-2H2,(H,7,8)(H,9,10)(H,11,12)/t11-,12+;/m0./s1

> <PUBCHEM_IUPAC_INCHIKEY>
ZVPYVZMKBQYKQG-ZVWHLABXSA-N

> <PUBCHEM_EXACT_MASS>
536.20309007

> <PUBCHEM_MOLECULAR_FORMULA>
C23H29FN6O8

> <PUBCHEM_MOLECULAR_WEIGHT>
536.5

> <PUBCHEM_OPENEYE_CAN_SMILES>
CN1C=C(C=N1)C2=NC(=C(C3=C2C(=O)NC3)F)NC4CCCCC4N.C(C(=O)O)C(CC(=O)O)(C(=O)O)O

> <PUBCHEM_OPENEYE_ISO_SMILES>
CN1C=C(C=N1)C2=NC(=C(C3=C2C(=O)NC3)F)N[C@@H]4CCCC[C@@H]4N.C(C(=O)O)C(CC(=O)O)(C(=O)O)O

> <PUBCHEM_CACTVS_TPSA>
230

> <PUBCHEM_MONOISOTOPIC_WEIGHT>
536.20309007

> <PUBCHEM_TOTAL_CHARGE>
0

> <PUBCHEM_HEAVY_ATOM_COUNT>
38

> <PUBCHEM_ATOM_DEF_STEREO_COUNT>
2

> <PUBCHEM_ATOM_UDEF_STEREO_COUNT>
0

> <PUBCHEM_BOND_DEF_STEREO_COUNT>
0

> <PUBCHEM_BOND_UDEF_STEREO_COUNT>
0

> <PUBCHEM_ISOTOPIC_ATOM_COUNT>
0

> <PUBCHEM_COMPONENT_COUNT>
2

> <PUBCHEM_CACTVS_TAUTO_COUNT>
-1

> <PUBCHEM_COORDINATE_TYPE>
1
5
255

> <PUBCHEM_BONDANNOTATIONS>
16  10  6
17  11  6
12  22  8
12  26  8
14  15  8
14  30  8
15  31  8
22  23  8
23  24  8
24  25  8
25  26  8
29  30  8
29  31  8

$$$$
122173919
  -OEChem-11282412102D

 65 67  0     0  0  0  0  0  0999 V2000
    5.1735    2.4985    0.0000 Cl  0  0  0  0  0  0  0  0  0  0  0  0
    5.1735    0.0000    0.0000 Cl  0  0  0  0  0  0  0  0  0  0  0  0
   10.1434   11.8122    0.0000 S   0  0  0  0  0  0  0  0  0  0  0  0
    8.3312   10.6170    0.0000 O   0  0  0  0  0  0  0  0  0  0  0  0
    8.3312    7.6170    0.0000 O   0  0  0  0  0  0  0  0  0  0  0  0
    3.1350   11.6170    0.0000 N   0  0  0  0  0  0  0  0  0  0  0  0
    1.4030   10.6170    0.0000 N   0  0  0  0  0  0  0  0  0  0  0  0
    6.5991   13.6170    0.0000 N   0  0  0  0  0  0  0  0  0  0  0  0
    8.3312   13.6170    0.0000 N   0  0  0  0  0  0  0  0  0  0  0  0
    7.4651   12.1170    0.0000 N   0  0  0  0  0  0  0  0  0  0  0  0
    6.5991    7.6170    0.0000 N   0  0  0  0  0  0  0  0  0  0  0  0
    3.1350   10.6170    0.0000 C   0  0  0  0  0  0  0  0  0  0  0  0
    2.2690   12.1170    0.0000 C   0  0  0  0  0  0  0  0  0  0  0  0
    2.2690   10.1170    0.0000 C   0  0  0  0  0  0  0  0  0  0  0  0
    1.4030   11.6170    0.0000 C   0  0  0  0  0  0  0  0  0  0  0  0
    4.0010   12.1170    0.0000 C   0  0  0  0  0  0  0  0  0  0  0  0
    0.5369   10.1170    0.0000 C   0  0  0  0  0  0  0  0  0  0  0  0
    4.0010   13.1170    0.0000 C   0  0  0  0  0  0  0  0  0  0  0  0
    4.8671   11.6170    0.0000 C   0  0  0  0  0  0  0  0  0  0  0  0
    4.8671   13.6170    0.0000 C   0  0  0  0  0  0  0  0  0  0  0  0
    5.7331   12.1170    0.0000 C   0  0  0  0  0  0  0  0  0  0  0  0
    5.7331   13.1170    0.0000 C   0  0  0  0  0  0  0  0  0  0  0  0
    7.4651   13.1170    0.0000 C   0  0  0  0  0  0  0  0  0  0  0  0
    9.1972   13.1170    0.0000 C   0  0  0  0  0  0  0  0  0  0  0  0
    9.1972   12.1170    0.0000 C   0  0  0  0  0  0  0  0  0  0  0  0
    8.3312   11.6170    0.0000 C   0  0  0  0  0  0  0  0  0  0  0  0
   10.1434   13.4217    0.0000 C   0  0  0  0  0  0  0  0  0  0  0  0
   10.7270   12.6170    0.0000 C   0  0  0  0  0  0  0  0  0  0  0  0
    7.4651   10.1170    0.0000 C   0  0  0  0  0  0  0  0  0  0  0  0
    7.4651    9.1170    0.0000 C   0  0  0  0  0  0  0  0  0  0  0  0
    6.5991    8.6170    0.0000 C   0  0  0  0  0  0  0  0  0  0  0  0
    6.5991   10.6170    0.0000 C   0  0  0  0  0  0  0  0  0  0  0  0
    5.7331    9.1170    0.0000 C   0  0  0  0  0  0  0  0  0  0  0  0
    5.7331   10.1170    0.0000 C   0  0  0  0  0  0  0  0  0  0  0  0
    7.4651    7.1170    0.0000 C   0  0  0  0  0  0  0  0  0  0  0  0
    7.4651    6.1170    0.0000 C   0  0  0  0  0  0  0  0  0  0  0  0
    8.3312    5.6170    0.0000 C   0  0  0  0  0  0  0  0  0  0  0  0
    3.3471   10.0344    0.0000 H   0  0  0  0  0  0  0  0  0  0  0  0
    3.7456   10.7246    0.0000 H   0  0  0  0  0  0  0  0  0  0  0  0
    2.6675   12.5919    0.0000 H   0  0  0  0  0  0  0  0  0  0  0  0
    1.8705   12.5919    0.0000 H   0  0  0  0  0  0  0  0  0  0  0  0
    1.8705    9.6420    0.0000 H   0  0  0  0  0  0  0  0  0  0  0  0
    2.6675    9.6420    0.0000 H   0  0  0  0  0  0  0  0  0  0  0  0
    1.1909   12.1996    0.0000 H   0  0  0  0  0  0  0  0  0  0  0  0
    0.7924   11.5093    0.0000 H   0  0  0  0  0  0  0  0  0  0  0  0
    0.2269   10.6539    0.0000 H   0  0  0  0  0  0  0  0  0  0  0  0
    0.0000    9.8070    0.0000 H   0  0  0  0  0  0  0  0  0  0  0  0
    0.8469    9.5800    0.0000 H   0  0  0  0  0  0  0  0  0  0  0  0
    3.4641   13.4270    0.0000 H   0  0  0  0  0  0  0  0  0  0  0  0
    4.8671   10.9970    0.0000 H   0  0  0  0  0  0  0  0  0  0  0  0
    4.8671   14.2370    0.0000 H   0  0  0  0  0  0  0  0  0  0  0  0
    6.2700   11.8070    0.0000 H   0  0  0  0  0  0  0  0  0  0  0  0
    6.5991   14.2370    0.0000 H   0  0  0  0  0  0  0  0  0  0  0  0
   10.3360   14.0110    0.0000 H   0  0  0  0  0  0  0  0  0  0  0  0
   11.3470   12.6170    0.0000 H   0  0  0  0  0  0  0  0  0  0  0  0
    8.0021    8.8070    0.0000 H   0  0  0  0  0  0  0  0  0  0  0  0
    6.5991   11.2370    0.0000 H   0  0  0  0  0  0  0  0  0  0  0  0
    5.1962    8.8070    0.0000 H   0  0  0  0  0  0  0  0  0  0  0  0
    5.1962   10.4270    0.0000 H   0  0  0  0  0  0  0  0  0  0  0  0
    6.0622    7.3070    0.0000 H   0  0  0  0  0  0  0  0  0  0  0  0
    6.9282    5.8070    0.0000 H   0  0  0  0  0  0  0  0  0  0  0  0
    8.3312    4.9970    0.0000 H   0  0  0  0  0  0  0  0  0  0  0  0
    8.8681    5.9270    0.0000 H   0  0  0  0  0  0  0  0  0  0  0  0
    6.1735    2.4985    0.0000 H   0  0  0  0  0  0  0  0  0  0  0  0
    6.1735    0.0000    0.0000 H   0  0  0  0  0  0  0  0  0  0  0  0
  1 64  1  0  0  0  0
  2 65  1  0  0  0  0
  3 25  1  0  0  0  0
  3 28  1  0  0  0  0
  4 26  1  0  0  0  0
  4 29  1  0  0  0  0
  5 35  2  0  0  0  0
  6 12  1  0  0  0  0
  6 13  1  0  0  0  0
  6 16  1  0  0  0  0
  7 14  1  0  0  0  0
  7 15  1  0  0  0  0
  7 17  1  0  0  0  0
  8 22  1  0  0  0  0
  8 23  1  0  0  0  0
  8 53  1  0  0  0  0
  9 23  2  0  0  0  0
  9 24  1  0  0  0  0
 10 23  1  0  0  0  0
 10 26  2  0  0  0  0
 11 31  1  0  0  0  0
 11 35  1  0  0  0  0
 11 60  1  0  0  0  0
 12 14  1  0  0  0  0
 12 38  1  0  0  0  0
 12 39  1  0  0  0  0
 13 15  1  0  0  0  0
 13 40  1  0  0  0  0
 13 41  1  0  0  0  0
 14 42  1  0  0  0  0
 14 43  1  0  0  0  0
 15 44  1  0  0  0  0
 15 45  1  0  0  0  0
 16 18  2  0  0  0  0
 16 19  1  0  0  0  0
 17 46  1  0  0  0  0
 17 47  1  0  0  0  0
 17 48  1  0  0  0  0
 18 20  1  0  0  0  0
 18 49  1  0  0  0  0
 19 21  2  0  0  0  0
 19 50  1  0  0  0  0
 20 22  2  0  0  0  0
 20 51  1  0  0  0  0
 21 22  1  0  0  0  0
 21 52  1  0  0  0  0
 24 25  2  0  0  0  0
 24 27  1  0  0  0  0
 25 26  1  0  0  0  0
 27 28  2  0  0  0  0
 27 54  1  0  0  0  0
 28 55  1  0  0  0  0
 29 30  1  0  0  0  0
 29 32  2  0  0  0  0
 30 31  2  0  0  0  0
 30 56  1  0  0  0  0
 31 33  1  0  0  0  0
 32 34  1  0  0  0  0
 32 57  1  0  0  0  0
 33 34  2  0  0  0  0
 33 58  1  0  0  0  0
 34 59  1  0  0  0  0
 35 36  1  0  0  0  0
 36 37  2  0  0  0  0
 36 61  1  0  0  0  0
 37 62  1  0  0  0  0
 37 63  1  0  0  0  0
M  END
> <PUBCHEM_COMPOUND_CID>
122173919

> <PUBCHEM_COMPOUND_CANONICALIZED>
1

> <PUBCHEM_CACTVS_COMPLEXITY>
712

> <PUBCHEM_CACTVS_HBOND_ACCEPTOR>
8

> <PUBCHEM_CACTVS_HBOND_DONOR>
4

> <PUBCHEM_CACTVS_ROTATABLE_BOND>
7

> <PUBCHEM_CACTVS_SUBSKEYS>
AAADceB7sABGAAAAAAAAAAAAAAAAASAAAAA8eIEAAAAAAFgB/AAAHgQQAAAACAzF1gSz17fIFAisASVydACDqKkhKrBJmD4+bNiMbqLk+duePCzu1Bvo6KeQUAMAAACAAgAAAAAAAQAEAAAAAAAAAAAAAA==

> <PUBCHEM_IUPAC_OPENEYE_NAME>
N-[3-[2-[4-(4-methylpiperazin-1-yl)anilino]thieno[3,2-d]pyrimidin-4-yl]oxyphenyl]prop-2-enamide;dihydrochloride

> <PUBCHEM_IUPAC_CAS_NAME>
N-[3-[[2-[4-(4-methyl-1-piperazinyl)anilino]-4-thieno[3,2-d]pyrimidinyl]oxy]phenyl]-2-propenamide;dihydrochloride

> <PUBCHEM_IUPAC_NAME_MARKUP>
<I>N</I>-[3-[2-[4-(4-methylpiperazin-1-yl)anilino]thieno[3,2-d]pyrimidin-4-yl]oxyphenyl]prop-2-enamide;dihydrochloride

> <PUBCHEM_IUPAC_NAME>
N-[3-[2-[4-(4-methylpiperazin-1-yl)anilino]thieno[3,2-d]pyrimidin-4-yl]oxyphenyl]prop-2-enamide;dihydrochloride

> <PUBCHEM_IUPAC_SYSTEMATIC_NAME>
N-[3-[2-[[4-(4-methylpiperazin-1-yl)phenyl]amino]thieno[3,2-d]pyrimidin-4-yl]oxyphenyl]prop-2-enamide;dihydrochloride

> <PUBCHEM_IUPAC_TRADITIONAL_NAME>
N-[3-[2-[4-(4-methylpiperazino)anilino]thieno[3,2-d]pyrimidin-4-yl]oxyphenyl]acrylamide;dihydrochloride

> <PUBCHEM_IUPAC_INCHI>
InChI=1S/C26H26N6O2S.2ClH/c1-3-23(33)27-19-5-4-6-21(17-19)34-25-24-22(11-16-35-24)29-26(30-25)28-18-7-9-20(10-8-18)32-14-12-31(2)13-15-32;;/h3-11,16-17H,1,12-15H2,2H3,(H,27,33)(H,28,29,30);2*1H

> <PUBCHEM_IUPAC_INCHIKEY>
KIHHNWDWKMJZHH-UHFFFAOYSA-N

> <PUBCHEM_EXACT_MASS>
558.1371507

> <PUBCHEM_MOLECULAR_FORMULA>
C26H28Cl2N6O2S

> <PUBCHEM_MOLECULAR_WEIGHT>
559.5

> <PUBCHEM_OPENEYE_CAN_SMILES>
CN1CCN(CC1)C2=CC=C(C=C2)NC3=NC4=C(C(=N3)OC5=CC=CC(=C5)NC(=O)C=C)SC=C4.Cl.Cl

> <PUBCHEM_OPENEYE_ISO_SMILES>
CN1CCN(CC1)C2=CC=C(C=C2)NC3=NC4=C(C(=N3)OC5=CC=CC(=C5)NC(=O)C=C)SC=C4.Cl.Cl

> <PUBCHEM_CACTVS_TPSA>
111

> <PUBCHEM_MONOISOTOPIC_WEIGHT>
558.1371507

> <PUBCHEM_TOTAL_CHARGE>
0

> <PUBCHEM_HEAVY_ATOM_COUNT>
37

> <PUBCHEM_ATOM_DEF_STEREO_COUNT>
0

> <PUBCHEM_ATOM_UDEF_STEREO_COUNT>
0

> <PUBCHEM_BOND_DEF_STEREO_COUNT>
0

> <PUBCHEM_BOND_UDEF_STEREO_COUNT>
0

> <PUBCHEM_ISOTOPIC_ATOM_COUNT>
0

> <PUBCHEM_COMPONENT_COUNT>
3

> <PUBCHEM_CACTVS_TAUTO_COUNT>
-1

> <PUBCHEM_COORDINATE_TYPE>
1
5
255

> <PUBCHEM_BONDANNOTATIONS>
10  23  8
10  26  8
16  18  8
16  19  8
18  20  8
19  21  8
20  22  8
21  22  8
24  25  8
24  27  8
25  26  8
27  28  8
29  30  8
29  32  8
3  25  8
3  28  8
30  31  8
31  33  8
32  34  8
33  34  8
9  23  8
9  24  8

$$$$
130412842
  -OEChem-11282412102D

 73 76  0     1  0  0  0  0  0999 V2000
    6.1737   -4.6679    0.0000 F   0  0  0  0  0  0  0  0  0  0  0  0
    6.9459   -5.8527    0.0000 F   0  0  0  0  0  0  0  0  0  0  0  0
    5.7612   -6.6250    0.0000 F   0  0  0  0  0  0  0  0  0  0  0  0
    5.9209    0.9218    0.0000 O   0  0  0  0  0  0  0  0  0  0  0  0
   10.1921    0.0519    0.0000 O   0  0  0  0  0  0  0  0  0  0  0  0
    4.6783   -4.4897    0.0000 N   0  0  0  0  0  0  0  0  0  0  0  0
    8.4993    3.2353    0.0000 N   0  0  3  0  0  0  0  0  0  0  0  0
    7.4742    5.6744    0.0000 N   0  0  0  0  0  0  0  0  0  0  0  0
    7.2566   -0.5668    0.0000 N   0  0  0  0  0  0  0  0  0  0  0  0
    5.9674   -1.7235    0.0000 N   0  0  0  0  0  0  0  0  0  0  0  0
    9.8349    1.7467    0.0000 N   0  0  0  0  0  0  0  0  0  0  0  0
    5.6103   -0.0287    0.0000 N   0  0  0  0  0  0  0  0  0  0  0  0
    3.7320   -4.1850    0.0000 C   0  0  0  0  0  0  0  0  0  0  0  0
    3.7320   -3.1850    0.0000 C   0  0  0  0  0  0  0  0  0  0  0  0
    4.6783   -2.8803    0.0000 C   0  0  0  0  0  0  0  0  0  0  0  0
    5.2619   -3.6850    0.0000 C   0  0  0  0  0  0  0  0  0  0  0  0
    7.8314    3.9796    0.0000 C   0  0  0  0  0  0  0  0  0  0  0  0
    4.9889   -5.4402    0.0000 C   0  0  0  0  0  0  0  0  0  0  0  0
    8.1886    2.2848    0.0000 C   0  0  0  0  0  0  0  0  0  0  0  0
    8.1421    4.9301    0.0000 C   0  0  0  0  0  0  0  0  0  0  0  0
    4.9889   -1.9297    0.0000 C   0  0  0  0  0  0  0  0  0  0  0  0
    2.8660   -4.6850    0.0000 C   0  0  0  0  0  0  0  0  0  0  0  0
    2.8660   -2.6850    0.0000 C   0  0  0  0  0  0  0  0  0  0  0  0
    8.8564    1.5405    0.0000 C   0  0  0  0  0  0  0  0  0  0  0  0
    7.2101    2.0786    0.0000 C   0  0  0  0  0  0  0  0  0  0  0  0
    7.5673    0.3838    0.0000 C   0  0  0  0  0  0  0  0  0  0  0  0
    6.8994    1.1280    0.0000 C   0  0  0  0  0  0  0  0  0  0  0  0
    8.5458    0.5900    0.0000 C   0  0  0  0  0  0  0  0  0  0  0  0
    9.4778    3.4415    0.0000 C   0  0  0  0  0  0  0  0  0  0  0  0
    5.9674   -5.6464    0.0000 C   0  0  0  0  0  0  0  0  0  0  0  0
    2.0000   -4.1850    0.0000 C   0  0  0  0  0  0  0  0  0  0  0  0
    2.0000   -3.1850    0.0000 C   0  0  0  0  0  0  0  0  0  0  0  0
    4.3211   -1.1854    0.0000 C   0  0  0  0  0  0  0  0  0  0  0  0
    6.2781   -0.7730    0.0000 C   0  0  0  0  0  0  0  0  0  0  0  0
    7.7849    6.6250    0.0000 C   0  0  0  0  0  0  0  0  0  0  0  0
    6.4957    5.4682    0.0000 C   0  0  0  0  0  0  0  0  0  0  0  0
    4.6318   -0.2349    0.0000 C   0  0  0  0  0  0  0  0  0  0  0  0
   10.5028    1.0024    0.0000 C   0  0  0  0  0  0  0  0  0  0  0  0
    5.2531    1.6661    0.0000 C   0  0  0  0  0  0  0  0  0  0  0  0
   11.4813    1.2086    0.0000 C   0  0  0  0  0  0  0  0  0  0  0  0
   12.1491    0.4643    0.0000 C   0  0  0  0  0  0  0  0  0  0  0  0
    5.8819   -3.6850    0.0000 H   0  0  0  0  0  0  0  0  0  0  0  0
    7.2845    4.2716    0.0000 H   0  0  0  0  0  0  0  0  0  0  0  0
    7.4489    3.4917    0.0000 H   0  0  0  0  0  0  0  0  0  0  0  0
    4.3751   -5.5276    0.0000 H   0  0  0  0  0  0  0  0  0  0  0  0
    4.9684   -6.0599    0.0000 H   0  0  0  0  0  0  0  0  0  0  0  0
    8.6890    4.6381    0.0000 H   0  0  0  0  0  0  0  0  0  0  0  0
    8.5246    5.4180    0.0000 H   0  0  0  0  0  0  0  0  0  0  0  0
    2.8660   -5.3050    0.0000 H   0  0  0  0  0  0  0  0  0  0  0  0
    2.8660   -2.0650    0.0000 H   0  0  0  0  0  0  0  0  0  0  0  0
    6.7960    2.5400    0.0000 H   0  0  0  0  0  0  0  0  0  0  0  0
    8.9598    0.1285    0.0000 H   0  0  0  0  0  0  0  0  0  0  0  0
    9.6056    2.8349    0.0000 H   0  0  0  0  0  0  0  0  0  0  0  0
   10.0844    3.5694    0.0000 H   0  0  0  0  0  0  0  0  0  0  0  0
    9.3499    4.0482    0.0000 H   0  0  0  0  0  0  0  0  0  0  0  0
    1.4631   -4.4950    0.0000 H   0  0  0  0  0  0  0  0  0  0  0  0
    1.4631   -2.8750    0.0000 H   0  0  0  0  0  0  0  0  0  0  0  0
    7.6707   -1.0282    0.0000 H   0  0  0  0  0  0  0  0  0  0  0  0
    3.7144   -1.3133    0.0000 H   0  0  0  0  0  0  0  0  0  0  0  0
   10.0276    2.3360    0.0000 H   0  0  0  0  0  0  0  0  0  0  0  0
    8.3742    6.4323    0.0000 H   0  0  0  0  0  0  0  0  0  0  0  0
    7.9775    7.2143    0.0000 H   0  0  0  0  0  0  0  0  0  0  0  0
    7.1956    6.8176    0.0000 H   0  0  0  0  0  0  0  0  0  0  0  0
    6.3679    6.0749    0.0000 H   0  0  0  0  0  0  0  0  0  0  0  0
    5.8890    5.3404    0.0000 H   0  0  0  0  0  0  0  0  0  0  0  0
    6.6236    4.8615    0.0000 H   0  0  0  0  0  0  0  0  0  0  0  0
    4.2177    0.2266    0.0000 H   0  0  0  0  0  0  0  0  0  0  0  0
    5.7145    2.0802    0.0000 H   0  0  0  0  0  0  0  0  0  0  0  0
    4.8390    2.1276    0.0000 H   0  0  0  0  0  0  0  0  0  0  0  0
    4.7916    1.2521    0.0000 H   0  0  0  0  0  0  0  0  0  0  0  0
   11.6739    1.7980    0.0000 H   0  0  0  0  0  0  0  0  0  0  0  0
   11.9565   -0.1250    0.0000 H   0  0  0  0  0  0  0  0  0  0  0  0
   12.7558    0.5922    0.0000 H   0  0  0  0  0  0  0  0  0  0  0  0
  1 30  1  0  0  0  0
  2 30  1  0  0  0  0
  3 30  1  0  0  0  0
  4 27  1  0  0  0  0
  4 39  1  0  0  0  0
  5 38  2  0  0  0  0
  6 13  1  0  0  0  0
  6 16  1  0  0  0  0
  6 18  1  0  0  0  0
  7 17  1  0  0  0  0
  7 19  1  0  0  0  0
  7 29  1  0  0  0  0
  8 20  1  0  0  0  0
  8 35  1  0  0  0  0
  8 36  1  0  0  0  0
  9 26  1  0  0  0  0
  9 34  1  0  0  0  0
  9 58  1  0  0  0  0
 10 21  2  0  0  0  0
 10 34  1  0  0  0  0
 11 24  1  0  0  0  0
 11 38  1  0  0  0  0
 11 60  1  0  0  0  0
 12 34  2  0  0  0  0
 12 37  1  0  0  0  0
 13 14  1  0  0  0  0
 13 22  2  0  0  0  0
 14 15  1  0  0  0  0
 14 23  2  0  0  0  0
 15 16  2  0  0  0  0
 15 21  1  0  0  0  0
 16 42  1  0  0  0  0
 17 20  1  0  0  0  0
 17 43  1  0  0  0  0
 17 44  1  0  0  0  0
 18 30  1  0  0  0  0
 18 45  1  0  0  0  0
 18 46  1  0  0  0  0
 19 24  1  0  0  0  0
 19 25  2  0  0  0  0
 20 47  1  0  0  0  0
 20 48  1  0  0  0  0
 21 33  1  0  0  0  0
 22 31  1  0  0  0  0
 22 49  1  0  0  0  0
 23 32  1  0  0  0  0
 23 50  1  0  0  0  0
 24 28  2  0  0  0  0
 25 27  1  0  0  0  0
 25 51  1  0  0  0  0
 26 27  2  0  0  0  0
 26 28  1  0  0  0  0
 28 52  1  0  0  0  0
 29 53  1  0  0  0  0
 29 54  1  0  0  0  0
 29 55  1  0  0  0  0
 31 32  2  0  0  0  0
 31 56  1  0  0  0  0
 32 57  1  0  0  0  0
 33 37  2  0  0  0  0
 33 59  1  0  0  0  0
 35 61  1  0  0  0  0
 35 62  1  0  0  0  0
 35 63  1  0  0  0  0
 36 64  1  0  0  0  0
 36 65  1  0  0  0  0
 36 66  1  0  0  0  0
 37 67  1  0  0  0  0
 38 40  1  0  0  0  0
 39 68  1  0  0  0  0
 39 69  1  0  0  0  0
 39 70  1  0  0  0  0
 40 41  2  0  0  0  0
 40 71  1  0  0  0  0
 41 72  1  0  0  0  0
 41 73  1  0  0  0  0
M  END
> <PUBCHEM_COMPOUND_CID>
130412842

> <PUBCHEM_COMPOUND_CANONICALIZED>
1

> <PUBCHEM_CACTVS_COMPLEXITY>
863

> <PUBCHEM_CACTVS_HBOND_ACCEPTOR>
10

> <PUBCHEM_CACTVS_HBOND_DONOR>
2

> <PUBCHEM_CACTVS_ROTATABLE_BOND>
11

> <PUBCHEM_CACTVS_SUBSKEYS>
AAADcfB7sYAAAAAAAAAAAAAAAAAAAWAAAAA8YIAAAAAAAFgB/AAAHwAQAAAADAzBnhY/1vfMFACoAzV3dACCiCkxIqAJ2CA/fNiObuLE+duVNChu1BvY6Kew0MMOgECAAgQCECAAgQAECAQgQAAAAAAAAA==

> <PUBCHEM_IUPAC_OPENEYE_NAME>
N-[2-[2-(dimethylamino)ethyl-methyl-amino]-4-methoxy-5-[[4-[1-(2,2,2-trifluoroethyl)indol-3-yl]pyrimidin-2-yl]amino]phenyl]prop-2-enamide

> <PUBCHEM_IUPAC_CAS_NAME>
N-[2-[2-(dimethylamino)ethyl-methylamino]-4-methoxy-5-[[4-[1-(2,2,2-trifluoroethyl)-3-indolyl]-2-pyrimidinyl]amino]phenyl]-2-propenamide

> <PUBCHEM_IUPAC_NAME_MARKUP>
<I>N</I>-[2-[2-(dimethylamino)ethyl-methylamino]-4-methoxy-5-[[4-[1-(2,2,2-trifluoroethyl)indol-3-yl]pyrimidin-2-yl]amino]phenyl]prop-2-enamide

> <PUBCHEM_IUPAC_NAME>
N-[2-[2-(dimethylamino)ethyl-methylamino]-4-methoxy-5-[[4-[1-(2,2,2-trifluoroethyl)indol-3-yl]pyrimidin-2-yl]amino]phenyl]prop-2-enamide

> <PUBCHEM_IUPAC_SYSTEMATIC_NAME>
N-[2-[2-(dimethylamino)ethyl-methyl-amino]-4-methoxy-5-[[4-[1-[2,2,2-tris(fluoranyl)ethyl]indol-3-yl]pyrimidin-2-yl]amino]phenyl]prop-2-enamide

> <PUBCHEM_IUPAC_TRADITIONAL_NAME>
N-[2-[2-(dimethylamino)ethyl-methyl-amino]-4-methoxy-5-[[4-[1-(2,2,2-trifluoroethyl)indol-3-yl]pyrimidin-2-yl]amino]phenyl]acrylamide

> <PUBCHEM_IUPAC_INCHI>
InChI=1S/C29H32F3N7O2/c1-6-27(40)34-22-15-23(26(41-5)16-25(22)38(4)14-13-37(2)3)36-28-33-12-11-21(35-28)20-17-39(18-29(30,31)32)24-10-8-7-9-19(20)24/h6-12,15-17H,1,13-14,18H2,2-5H3,(H,34,40)(H,33,35,36)

> <PUBCHEM_IUPAC_INCHIKEY>
USOCZVZOXKTJTI-UHFFFAOYSA-N

> <PUBCHEM_XLOGP3_AA>
4.8

> <PUBCHEM_EXACT_MASS>
567.25695778

> <PUBCHEM_MOLECULAR_FORMULA>
C29H32F3N7O2

> <PUBCHEM_MOLECULAR_WEIGHT>
567.6

> <PUBCHEM_OPENEYE_CAN_SMILES>
CN(C)CCN(C)C1=CC(=C(C=C1NC(=O)C=C)NC2=NC=CC(=N2)C3=CN(C4=CC=CC=C43)CC(F)(F)F)OC

> <PUBCHEM_OPENEYE_ISO_SMILES>
CN(C)CCN(C)C1=CC(=C(C=C1NC(=O)C=C)NC2=NC=CC(=N2)C3=CN(C4=CC=CC=C43)CC(F)(F)F)OC

> <PUBCHEM_CACTVS_TPSA>
87.6

> <PUBCHEM_MONOISOTOPIC_WEIGHT>
567.25695778

> <PUBCHEM_TOTAL_CHARGE>
0

> <PUBCHEM_HEAVY_ATOM_COUNT>
41

> <PUBCHEM_ATOM_DEF_STEREO_COUNT>
0

> <PUBCHEM_ATOM_UDEF_STEREO_COUNT>
0

> <PUBCHEM_BOND_DEF_STEREO_COUNT>
0

> <PUBCHEM_BOND_UDEF_STEREO_COUNT>
0

> <PUBCHEM_ISOTOPIC_ATOM_COUNT>
0

> <PUBCHEM_COMPONENT_COUNT>
1

> <PUBCHEM_CACTVS_TAUTO_COUNT>
-1

> <PUBCHEM_COORDINATE_TYPE>
1
5
255

> <PUBCHEM_BONDANNOTATIONS>
10  21  8
10  34  8
12  34  8
12  37  8
13  14  8
13  22  8
14  15  8
14  23  8
15  16  8
19  24  8
19  25  8
21  33  8
22  31  8
23  32  8
24  28  8
25  27  8
26  27  8
26  28  8
31  32  8
33  37  8
6  13  8
6  16  8

$$$$
131634510
  -OEChem-11282412102D

 84 83  0     1  0  0  0  0  0999 V2000
    5.5357    5.1350    0.0000 Cl  0  0  0  0  0  0  0  0  0  0  0  0
    8.0206   14.7769    0.0000 S   0  0  0  0  0  0  0  0  0  0  0  0
    5.2965    6.6073    0.0000 O   0  0  0  0  0  0  0  0  0  0  0  0
    8.9315    1.4030    0.0000 O   0  0  0  0  0  0  0  0  0  0  0  0
    8.8866   15.2769    0.0000 O   0  0  0  0  0  0  0  0  0  0  0  0
    7.5206   15.6429    0.0000 O   0  0  0  0  0  0  0  0  0  0  0  0
    8.5206   13.9108    0.0000 O   0  0  0  0  0  0  0  0  0  0  0  0
    0.5369    6.3223    0.0000 O   0  0  0  0  0  0  0  0  0  0  0  0
    0.5369    8.8209    0.0000 O   0  0  0  0  0  0  0  0  0  0  0  0
   15.5043    7.5716    0.0000 O   0  0  0  0  0  0  0  0  0  0  0  0
    7.3479    3.9397    0.0000 N   0  0  0  0  0  0  0  0  0  0  0  0
    7.0283    6.5784    0.0000 N   0  0  0  0  0  0  0  0  0  0  0  0
    7.3479    2.3303    0.0000 N   0  0  0  0  0  0  0  0  0  0  0  0
    8.9315    3.1350    0.0000 N   0  0  0  0  0  0  0  0  0  0  0  0
    4.4890   10.1213    0.0000 N   0  0  0  0  0  0  0  0  0  0  0  0
   12.4315    2.2690    0.0000 N   0  0  0  0  0  0  0  0  0  0  0  0
    7.6586    4.8903    0.0000 C   0  0  2  0  0  0  0  0  0  0  0  0
    8.6497    5.0228    0.0000 C   0  0  0  0  0  0  0  0  0  0  0  0
    6.9370    5.5826    0.0000 C   0  0  0  0  0  0  0  0  0  0  0  0
    9.1641    5.8803    0.0000 C   0  0  0  0  0  0  0  0  0  0  0  0
    8.8144    6.8172    0.0000 C   0  0  0  0  0  0  0  0  0  0  0  0
    7.8638    7.1278    0.0000 C   0  0  0  0  0  0  0  0  0  0  0  0
    6.4017    3.6350    0.0000 C   0  0  0  0  0  0  0  0  0  0  0  0
    7.9315    3.1350    0.0000 C   0  0  0  0  0  0  0  0  0  0  0  0
    6.1708    7.0928    0.0000 C   0  0  0  0  0  0  0  0  0  0  0  0
    6.4017    2.6350    0.0000 C   0  0  0  0  0  0  0  0  0  0  0  0
    5.5357    4.1350    0.0000 C   0  0  0  0  0  0  0  0  0  0  0  0
    5.5357    2.1350    0.0000 C   0  0  0  0  0  0  0  0  0  0  0  0
    6.1875    8.0926    0.0000 C   0  0  0  0  0  0  0  0  0  0  0  0
    4.6696    3.6350    0.0000 C   0  0  0  0  0  0  0  0  0  0  0  0
    4.6696    2.6350    0.0000 C   0  0  0  0  0  0  0  0  0  0  0  0
    9.4315    2.2690    0.0000 C   0  0  0  0  0  0  0  0  0  0  0  0
    5.3299    8.6070    0.0000 C   0  0  0  0  0  0  0  0  0  0  0  0
    5.3466    9.6069    0.0000 C   0  0  0  0  0  0  0  0  0  0  0  0
   10.4315    2.2690    0.0000 C   0  0  0  0  0  0  0  0  0  0  0  0
   10.9315    1.4030    0.0000 C   0  0  0  0  0  0  0  0  0  0  0  0
   10.9315    3.1350    0.0000 C   0  0  0  0  0  0  0  0  0  0  0  0
    4.5057   11.1211    0.0000 C   0  0  0  0  0  0  0  0  0  0  0  0
    3.6148    9.6358    0.0000 C   0  0  0  0  0  0  0  0  0  0  0  0
   11.9315    1.4030    0.0000 C   0  0  0  0  0  0  0  0  0  0  0  0
   11.9315    3.1350    0.0000 C   0  0  0  0  0  0  0  0  0  0  0  0
   12.4315    0.5369    0.0000 C   0  0  0  0  0  0  0  0  0  0  0  0
    7.1546   14.2769    0.0000 C   0  0  0  0  0  0  0  0  0  0  0  0
    8.0551    4.4136    0.0000 H   0  0  0  0  0  0  0  0  0  0  0  0
    8.5931    4.4054    0.0000 H   0  0  0  0  0  0  0  0  0  0  0  0
    9.2391    4.8302    0.0000 H   0  0  0  0  0  0  0  0  0  0  0  0
    6.3476    5.7752    0.0000 H   0  0  0  0  0  0  0  0  0  0  0  0
    6.6180    5.0509    0.0000 H   0  0  0  0  0  0  0  0  0  0  0  0
    9.6115    5.4511    0.0000 H   0  0  0  0  0  0  0  0  0  0  0  0
    9.6822    6.2210    0.0000 H   0  0  0  0  0  0  0  0  0  0  0  0
    9.4289    6.8994    0.0000 H   0  0  0  0  0  0  0  0  0  0  0  0
    8.8710    7.4346    0.0000 H   0  0  0  0  0  0  0  0  0  0  0  0
    8.1828    7.6595    0.0000 H   0  0  0  0  0  0  0  0  0  0  0  0
    7.4165    7.5571    0.0000 H   0  0  0  0  0  0  0  0  0  0  0  0
    9.2415    3.6720    0.0000 H   0  0  0  0  0  0  0  0  0  0  0  0
    5.5357    1.5150    0.0000 H   0  0  0  0  0  0  0  0  0  0  0  0
    6.7295    8.3936    0.0000 H   0  0  0  0  0  0  0  0  0  0  0  0
    4.1327    3.9450    0.0000 H   0  0  0  0  0  0  0  0  0  0  0  0
    4.1327    2.3250    0.0000 H   0  0  0  0  0  0  0  0  0  0  0  0
    4.7879    8.3060    0.0000 H   0  0  0  0  0  0  0  0  0  0  0  0
    5.9553    9.4890    0.0000 H   0  0  0  0  0  0  0  0  0  0  0  0
    5.5683   10.1859    0.0000 H   0  0  0  0  0  0  0  0  0  0  0  0
   10.6215    0.8660    0.0000 H   0  0  0  0  0  0  0  0  0  0  0  0
   10.6215    3.6720    0.0000 H   0  0  0  0  0  0  0  0  0  0  0  0
    5.1256   11.1108    0.0000 H   0  0  0  0  0  0  0  0  0  0  0  0
    4.5161   11.7410    0.0000 H   0  0  0  0  0  0  0  0  0  0  0  0
    3.8858   11.1315    0.0000 H   0  0  0  0  0  0  0  0  0  0  0  0
    3.3138   10.1778    0.0000 H   0  0  0  0  0  0  0  0  0  0  0  0
    3.0727    9.3348    0.0000 H   0  0  0  0  0  0  0  0  0  0  0  0
    3.9158    9.0938    0.0000 H   0  0  0  0  0  0  0  0  0  0  0  0
   12.2415    3.6720    0.0000 H   0  0  0  0  0  0  0  0  0  0  0  0
   11.8946    0.2269    0.0000 H   0  0  0  0  0  0  0  0  0  0  0  0
   12.7415    0.0000    0.0000 H   0  0  0  0  0  0  0  0  0  0  0  0
   12.9684    0.8469    0.0000 H   0  0  0  0  0  0  0  0  0  0  0  0
    6.8446   14.8138    0.0000 H   0  0  0  0  0  0  0  0  0  0  0  0
    6.6176   13.9669    0.0000 H   0  0  0  0  0  0  0  0  0  0  0  0
    7.4646   13.7399    0.0000 H   0  0  0  0  0  0  0  0  0  0  0  0
    9.4236   14.9669    0.0000 H   0  0  0  0  0  0  0  0  0  0  0  0
    1.0739    6.6323    0.0000 H   0  0  0  0  0  0  0  0  0  0  0  0
    0.0000    6.6323    0.0000 H   0  0  0  0  0  0  0  0  0  0  0  0
    1.0739    9.1309    0.0000 H   0  0  0  0  0  0  0  0  0  0  0  0
    0.0000    9.1309    0.0000 H   0  0  0  0  0  0  0  0  0  0  0  0
   16.0412    7.8816    0.0000 H   0  0  0  0  0  0  0  0  0  0  0  0
   14.9673    7.8816    0.0000 H   0  0  0  0  0  0  0  0  0  0  0  0
  1 27  1  0  0  0  0
  2  5  1  0  0  0  0
  2  6  2  0  0  0  0
  2  7  2  0  0  0  0
  2 43  1  0  0  0  0
  3 25  2  0  0  0  0
  4 32  2  0  0  0  0
  5 78  1  0  0  0  0
  8 79  1  0  0  0  0
  8 80  1  0  0  0  0
  9 81  1  0  0  0  0
  9 82  1  0  0  0  0
 10 83  1  0  0  0  0
 10 84  1  0  0  0  0
 17 11  1  1  0  0  0
 11 23  1  0  0  0  0
 11 24  1  0  0  0  0
 12 19  1  0  0  0  0
 12 22  1  0  0  0  0
 12 25  1  0  0  0  0
 13 24  2  0  0  0  0
 13 26  1  0  0  0  0
 14 24  1  0  0  0  0
 14 32  1  0  0  0  0
 14 55  1  0  0  0  0
 15 34  1  0  0  0  0
 15 38  1  0  0  0  0
 15 39  1  0  0  0  0
 16 40  2  0  0  0  0
 16 41  1  0  0  0  0
 17 18  1  0  0  0  0
 17 19  1  0  0  0  0
 17 44  1  0  0  0  0
 18 20  1  0  0  0  0
 18 45  1  0  0  0  0
 18 46  1  0  0  0  0
 19 47  1  0  0  0  0
 19 48  1  0  0  0  0
 20 21  1  0  0  0  0
 20 49  1  0  0  0  0
 20 50  1  0  0  0  0
 21 22  1  0  0  0  0
 21 51  1  0  0  0  0
 21 52  1  0  0  0  0
 22 53  1  0  0  0  0
 22 54  1  0  0  0  0
 23 26  2  0  0  0  0
 23 27  1  0  0  0  0
 25 29  1  0  0  0  0
 26 28  1  0  0  0  0
 27 30  2  0  0  0  0
 28 31  2  0  0  0  0
 28 56  1  0  0  0  0
 29 33  2  0  0  0  0
 29 57  1  0  0  0  0
 30 31  1  0  0  0  0
 30 58  1  0  0  0  0
 31 59  1  0  0  0  0
 32 35  1  0  0  0  0
 33 34  1  0  0  0  0
 33 60  1  0  0  0  0
 34 61  1  0  0  0  0
 34 62  1  0  0  0  0
 35 36  2  0  0  0  0
 35 37  1  0  0  0  0
 36 40  1  0  0  0  0
 36 63  1  0  0  0  0
 37 41  2  0  0  0  0
 37 64  1  0  0  0  0
 38 65  1  0  0  0  0
 38 66  1  0  0  0  0
 38 67  1  0  0  0  0
 39 68  1  0  0  0  0
 39 69  1  0  0  0  0
 39 70  1  0  0  0  0
 40 42  1  0  0  0  0
 41 71  1  0  0  0  0
 42 72  1  0  0  0  0
 42 73  1  0  0  0  0
 42 74  1  0  0  0  0
 43 75  1  0  0  0  0
 43 76  1  0  0  0  0
 43 77  1  0  0  0  0
M  END
> <PUBCHEM_COMPOUND_CID>
131634510

> <PUBCHEM_COMPOUND_CANONICALIZED>
1

> <PUBCHEM_CACTVS_COMPLEXITY>
857

> <PUBCHEM_CACTVS_HBOND_ACCEPTOR>
11

> <PUBCHEM_CACTVS_HBOND_DONOR>
5

> <PUBCHEM_CACTVS_ROTATABLE_BOND>
6

> <PUBCHEM_CACTVS_SUBSKEYS>
AAADcfB7vABEAAAAAAAAAAAAAAAAAWAAAAA8QAAABYAAAFgB/AAAHgYQCAAADCrBniS/0LfMEIKoAzV3dHCCgC01F6AJ2CE4dtiIaPLBn5HUIQhohwLIyaccAAAOAAAAAAIAADAAAAAABAAAYAAAAAAAAA==

> <PUBCHEM_IUPAC_OPENEYE_NAME>
N-[7-chloro-1-[(3R)-1-[(E)-4-(dimethylamino)but-2-enoyl]azepan-3-yl]benzimidazol-2-yl]-2-methyl-pyridine-4-carboxamide;methanesulfonic acid;trihydrate

> <PUBCHEM_IUPAC_CAS_NAME>
N-[7-chloro-1-[(3R)-1-[(E)-4-(dimethylamino)-1-oxobut-2-enyl]-3-azepanyl]-2-benzimidazolyl]-2-methyl-4-pyridinecarboxamide;methanesulfonic acid;trihydrate

> <PUBCHEM_IUPAC_NAME_MARKUP>
<I>N</I>-[7-chloro-1-[(3<I>R</I>)-1-[(<I>E</I>)-4-(dimethylamino)but-2-enoyl]azepan-3-yl]benzimidazol-2-yl]-2-methylpyridine-4-carboxamide;methanesulfonic acid;trihydrate

> <PUBCHEM_IUPAC_NAME>
N-[7-chloro-1-[(3R)-1-[(E)-4-(dimethylamino)but-2-enoyl]azepan-3-yl]benzimidazol-2-yl]-2-methylpyridine-4-carboxamide;methanesulfonic acid;trihydrate

> <PUBCHEM_IUPAC_SYSTEMATIC_NAME>
N-[7-chloranyl-1-[(3R)-1-[(E)-4-(dimethylamino)but-2-enoyl]azepan-3-yl]benzimidazol-2-yl]-2-methyl-pyridine-4-carboxamide;methanesulfonic acid;trihydrate

> <PUBCHEM_IUPAC_TRADITIONAL_NAME>
N-[7-chloro-1-[(3R)-1-[(E)-4-(dimethylamino)but-2-enoyl]azepan-3-yl]benzimidazol-2-yl]-2-methyl-isonicotinamide;mesylic acid;trihydrate

> <PUBCHEM_IUPAC_INCHI>
InChI=1S/C26H31ClN6O2.CH4O3S.3H2O/c1-18-16-19(12-13-28-18)25(35)30-26-29-22-10-6-9-21(27)24(22)33(26)20-8-4-5-15-32(17-20)23(34)11-7-14-31(2)3;1-5(2,3)4;;;/h6-7,9-13,16,20H,4-5,8,14-15,17H2,1-3H3,(H,29,30,35);1H3,(H,2,3,4);3*1H2/b11-7+;;;;/t20-;;;;/m1..../s1

> <PUBCHEM_IUPAC_INCHIKEY>
HCKBCMVQGLVGEA-ZBFDXWMPSA-N

> <PUBCHEM_EXACT_MASS>
644.2395112

> <PUBCHEM_MOLECULAR_FORMULA>
C27H41ClN6O8S

> <PUBCHEM_MOLECULAR_WEIGHT>
645.2

> <PUBCHEM_OPENEYE_CAN_SMILES>
CC1=NC=CC(=C1)C(=O)NC2=NC3=C(N2C4CCCCN(C4)C(=O)C=CCN(C)C)C(=CC=C3)Cl.CS(=O)(=O)O.O.O.O

> <PUBCHEM_OPENEYE_ISO_SMILES>
CC1=NC=CC(=C1)C(=O)NC2=NC3=C(N2[C@@H]4CCCCN(C4)C(=O)/C=C/CN(C)C)C(=CC=C3)Cl.CS(=O)(=O)O.O.O.O

> <PUBCHEM_CACTVS_TPSA>
149

> <PUBCHEM_MONOISOTOPIC_WEIGHT>
644.2395112

> <PUBCHEM_TOTAL_CHARGE>
0

> <PUBCHEM_HEAVY_ATOM_COUNT>
43

> <PUBCHEM_ATOM_DEF_STEREO_COUNT>
1

> <PUBCHEM_ATOM_UDEF_STEREO_COUNT>
0

> <PUBCHEM_BOND_DEF_STEREO_COUNT>
1

> <PUBCHEM_BOND_UDEF_STEREO_COUNT>
0

> <PUBCHEM_ISOTOPIC_ATOM_COUNT>
0

> <PUBCHEM_COMPONENT_COUNT>
5

> <PUBCHEM_CACTVS_TAUTO_COUNT>
-1

> <PUBCHEM_COORDINATE_TYPE>
1
5
255

> <PUBCHEM_BONDANNOTATIONS>
17  11  5
11  23  8
11  24  8
13  24  8
13  26  8
16  40  8
16  41  8
23  26  8
23  27  8
26  28  8
27  30  8
28  31  8
30  31  8
35  36  8
35  37  8
36  40  8
37  41  8

$$$$
135138184
  -OEChem-11282412102D

 43 45  0     1  0  0  0  0  0999 V2000
    5.4641   -2.7783    0.0000 F   0  0  0  0  0  0  0  0  0  0  0  0
    8.5765   -0.0645    0.0000 O   0  0  0  0  0  0  0  0  0  0  0  0
    3.0084    2.0763    0.0000 O   0  0  0  0  0  0  0  0  0  0  0  0
    2.0000   -2.7783    0.0000 O   0  0  0  0  0  0  0  0  0  0  0  0
    6.1808    1.0581    0.0000 N   0  0  0  0  0  0  0  0  0  0  0  0
    5.5116    0.3149    0.0000 N   0  0  0  0  0  0  0  0  0  0  0  0
    3.7320    0.2217    0.0000 N   0  0  0  0  0  0  0  0  0  0  0  0
    6.9496    3.5897    0.0000 N   0  0  0  0  0  0  0  0  0  0  0  0
    4.1674    3.3635    0.0000 N   0  0  0  0  0  0  0  0  0  0  0  0
    3.7320   -2.7783    0.0000 N   0  0  0  0  0  0  0  0  0  0  0  0
    7.1753    0.9535    0.0000 C   0  0  2  0  0  0  0  0  0  0  0  0
    7.7631    1.7626    0.0000 C   0  0  2  0  0  0  0  0  0  0  0  0
    8.7576    1.6580    0.0000 C   0  0  0  0  0  0  0  0  0  0  0  0
    7.5820    0.0400    0.0000 C   0  0  0  0  0  0  0  0  0  0  0  0
    9.1643    0.7445    0.0000 C   0  0  0  0  0  0  0  0  0  0  0  0
    5.6808    1.9241    0.0000 C   0  0  0  0  0  0  0  0  0  0  0  0
    7.3563    2.6761    0.0000 C   0  0  0  0  0  0  0  0  0  0  0  0
    4.7026    1.7162    0.0000 C   0  0  0  0  0  0  0  0  0  0  0  0
    4.5981    0.7217    0.0000 C   0  0  0  0  0  0  0  0  0  0  0  0
    3.9595    2.3853    0.0000 C   0  0  0  0  0  0  0  0  0  0  0  0
    3.7320   -0.7783    0.0000 C   0  0  0  0  0  0  0  0  0  0  0  0
    2.8660   -1.2783    0.0000 C   0  0  0  0  0  0  0  0  0  0  0  0
    4.5981   -1.2783    0.0000 C   0  0  0  0  0  0  0  0  0  0  0  0
    2.8660   -2.2783    0.0000 C   0  0  0  0  0  0  0  0  0  0  0  0
    4.5981   -2.2783    0.0000 C   0  0  0  0  0  0  0  0  0  0  0  0
    2.0000   -3.7783    0.0000 C   0  0  0  0  0  0  0  0  0  0  0  0
    6.9231    1.5200    0.0000 H   0  0  0  0  0  0  0  0  0  0  0  0
    8.1275    2.2642    0.0000 H   0  0  0  0  0  0  0  0  0  0  0  0
    9.3592    1.8080    0.0000 H   0  0  0  0  0  0  0  0  0  0  0  0
    8.7143    2.2765    0.0000 H   0  0  0  0  0  0  0  0  0  0  0  0
    6.9804   -0.1100    0.0000 H   0  0  0  0  0  0  0  0  0  0  0  0
    7.6253   -0.5785    0.0000 H   0  0  0  0  0  0  0  0  0  0  0  0
    9.5950    0.2985    0.0000 H   0  0  0  0  0  0  0  0  0  0  0  0
    9.6783    1.0912    0.0000 H   0  0  0  0  0  0  0  0  0  0  0  0
    5.9329    2.4905    0.0000 H   0  0  0  0  0  0  0  0  0  0  0  0
    3.1951    0.5317    0.0000 H   0  0  0  0  0  0  0  0  0  0  0  0
    2.3291   -0.9683    0.0000 H   0  0  0  0  0  0  0  0  0  0  0  0
    3.7066    3.7783    0.0000 H   0  0  0  0  0  0  0  0  0  0  0  0
    4.7570    3.5551    0.0000 H   0  0  0  0  0  0  0  0  0  0  0  0
    5.1350   -0.9683    0.0000 H   0  0  0  0  0  0  0  0  0  0  0  0
    1.3800   -3.7783    0.0000 H   0  0  0  0  0  0  0  0  0  0  0  0
    2.0000   -4.3983    0.0000 H   0  0  0  0  0  0  0  0  0  0  0  0
    2.6200   -3.7783    0.0000 H   0  0  0  0  0  0  0  0  0  0  0  0
  1 25  1  0  0  0  0
  2 14  1  0  0  0  0
  2 15  1  0  0  0  0
  3 20  2  0  0  0  0
  4 24  1  0  0  0  0
  4 26  1  0  0  0  0
  5  6  1  0  0  0  0
 11  5  1  6  0  0  0
  5 16  1  0  0  0  0
  6 19  2  0  0  0  0
  7 19  1  0  0  0  0
  7 21  1  0  0  0  0
  7 36  1  0  0  0  0
  8 17  3  0  0  0  0
  9 20  1  0  0  0  0
  9 38  1  0  0  0  0
  9 39  1  0  0  0  0
 10 24  2  0  0  0  0
 10 25  1  0  0  0  0
 11 12  1  0  0  0  0
 11 14  1  0  0  0  0
 11 27  1  0  0  0  0
 12 13  1  0  0  0  0
 12 17  1  1  0  0  0
 12 28  1  0  0  0  0
 13 15  1  0  0  0  0
 13 29  1  0  0  0  0
 13 30  1  0  0  0  0
 14 31  1  0  0  0  0
 14 32  1  0  0  0  0
 15 33  1  0  0  0  0
 15 34  1  0  0  0  0
 16 18  2  0  0  0  0
 16 35  1  0  0  0  0
 18 19  1  0  0  0  0
 18 20  1  0  0  0  0
 21 22  2  0  0  0  0
 21 23  1  0  0  0  0
 22 24  1  0  0  0  0
 22 37  1  0  0  0  0
 23 25  2  0  0  0  0
 23 40  1  0  0  0  0
 26 41  1  0  0  0  0
 26 42  1  0  0  0  0
 26 43  1  0  0  0  0
M  END
> <PUBCHEM_COMPOUND_CID>
135138184

> <PUBCHEM_COMPOUND_CANONICALIZED>
1

> <PUBCHEM_CACTVS_COMPLEXITY>
557

> <PUBCHEM_CACTVS_HBOND_ACCEPTOR>
8

> <PUBCHEM_CACTVS_HBOND_DONOR>
2

> <PUBCHEM_CACTVS_ROTATABLE_BOND>
5

> <PUBCHEM_CACTVS_SUBSKEYS>
AAADceB7sQAAAAAAAAAAAAAAAAAAAWAAAAAsSAAAAAAAAAAB4AAAHwAYAAAADSjhmg4/9JLIFAC6Bjd3dACSjCI1oiAV2CE+bNiOpurE+duHtKh22BvY6O6wEAAKAAAAAAAAAAAAAAAAAAAAAAAAAAAAAA==

> <PUBCHEM_IUPAC_OPENEYE_NAME>
1-[(3R,4S)-4-cyanotetrahydropyran-3-yl]-3-[(2-fluoro-6-methoxy-4-pyridyl)amino]pyrazole-4-carboxamide

> <PUBCHEM_IUPAC_CAS_NAME>
1-[(3R,4S)-4-cyano-3-oxanyl]-3-[(2-fluoro-6-methoxy-4-pyridinyl)amino]-4-pyrazolecarboxamide

> <PUBCHEM_IUPAC_NAME_MARKUP>
1-[(3<I>R</I>,4<I>S</I>)-4-cyanooxan-3-yl]-3-[(2-fluoro-6-methoxypyridin-4-yl)amino]pyrazole-4-carboxamide

> <PUBCHEM_IUPAC_NAME>
1-[(3R,4S)-4-cyanooxan-3-yl]-3-[(2-fluoro-6-methoxypyridin-4-yl)amino]pyrazole-4-carboxamide

> <PUBCHEM_IUPAC_SYSTEMATIC_NAME>
1-[(3R,4S)-4-cyanooxan-3-yl]-3-[(2-fluoranyl-6-methoxy-pyridin-4-yl)amino]pyrazole-4-carboxamide

> <PUBCHEM_IUPAC_TRADITIONAL_NAME>
1-[(3R,4S)-4-cyanotetrahydropyran-3-yl]-3-[(2-fluoro-6-methoxy-4-pyridyl)amino]pyrazole-4-carboxamide

> <PUBCHEM_IUPAC_INCHI>
InChI=1S/C16H17FN6O3/c1-25-14-5-10(4-13(17)21-14)20-16-11(15(19)24)7-23(22-16)12-8-26-3-2-9(12)6-18/h4-5,7,9,12H,2-3,8H2,1H3,(H2,19,24)(H,20,21,22)/t9-,12+/m1/s1

> <PUBCHEM_IUPAC_INCHIKEY>
PRQMBGDYXWVEHE-SKDRFNHKSA-N

> <PUBCHEM_XLOGP3_AA>
0.9

> <PUBCHEM_EXACT_MASS>
360.13461659

> <PUBCHEM_MOLECULAR_FORMULA>
C16H17FN6O3

> <PUBCHEM_MOLECULAR_WEIGHT>
360.34

> <PUBCHEM_OPENEYE_CAN_SMILES>
COC1=NC(=CC(=C1)NC2=NN(C=C2C(=O)N)C3COCCC3C#N)F

> <PUBCHEM_OPENEYE_ISO_SMILES>
COC1=NC(=CC(=C1)NC2=NN(C=C2C(=O)N)[C@H]3COCC[C@@H]3C#N)F

> <PUBCHEM_CACTVS_TPSA>
128

> <PUBCHEM_MONOISOTOPIC_WEIGHT>
360.13461659

> <PUBCHEM_TOTAL_CHARGE>
0

> <PUBCHEM_HEAVY_ATOM_COUNT>
26

> <PUBCHEM_ATOM_DEF_STEREO_COUNT>
2

> <PUBCHEM_ATOM_UDEF_STEREO_COUNT>
0

> <PUBCHEM_BOND_DEF_STEREO_COUNT>
0

> <PUBCHEM_BOND_UDEF_STEREO_COUNT>
0

> <PUBCHEM_ISOTOPIC_ATOM_COUNT>
0

> <PUBCHEM_COMPONENT_COUNT>
1

> <PUBCHEM_CACTVS_TAUTO_COUNT>
-1

> <PUBCHEM_COORDINATE_TYPE>
1
5
255

> <PUBCHEM_BONDANNOTATIONS>
10  24  8
10  25  8
12  17  5
16  18  8
18  19  8
21  22  8
21  23  8
22  24  8
23  25  8
11  5  6
5  16  8
5  6  8
6  19  8

$$$$
135398510
  -OEChem-11282412102D

 50 54  0     0  0  0  0  0  0999 V2000
    2.9176   -0.4194    0.0000 F   0  0  0  0  0  0  0  0  0  0  0  0
    6.3981   -3.4540    0.0000 O   0  0  0  0  0  0  0  0  0  0  0  0
    9.4730    1.4760    0.0000 N   0  0  0  0  0  0  0  0  0  0  0  0
   10.4730    3.2080    0.0000 N   0  0  0  0  0  0  0  0  0  0  0  0
    6.5011   -0.4653    0.0000 N   0  0  0  0  0  0  0  0  0  0  0  0
    7.3059   -1.8591    0.0000 N   0  0  0  0  0  0  0  0  0  0  0  0
    4.6660   -3.4540    0.0000 N   0  0  0  0  0  0  0  0  0  0  0  0
    4.6660   -0.4540    0.0000 N   0  0  0  0  0  0  0  0  0  0  0  0
   10.4730    1.4760    0.0000 C   0  0  0  0  0  0  0  0  0  0  0  0
    8.9730    2.3420    0.0000 C   0  0  0  0  0  0  0  0  0  0  0  0
   10.9730    2.3420    0.0000 C   0  0  0  0  0  0  0  0  0  0  0  0
    9.4730    3.2080    0.0000 C   0  0  0  0  0  0  0  0  0  0  0  0
    8.9730    0.6099    0.0000 C   0  0  0  0  0  0  0  0  0  0  0  0
   10.9730    4.0740    0.0000 C   0  0  0  0  0  0  0  0  0  0  0  0
    7.9730    0.6099    0.0000 C   0  0  0  0  0  0  0  0  0  0  0  0
    7.4730   -0.2561    0.0000 C   0  0  0  0  0  0  0  0  0  0  0  0
    9.4730   -0.2561    0.0000 C   0  0  0  0  0  0  0  0  0  0  0  0
    7.9730   -1.1221    0.0000 C   0  0  0  0  0  0  0  0  0  0  0  0
    8.9730   -1.1221    0.0000 C   0  0  0  0  0  0  0  0  0  0  0  0
    6.3981   -1.4540    0.0000 C   0  0  0  0  0  0  0  0  0  0  0  0
    5.5321   -1.9540    0.0000 C   0  0  0  0  0  0  0  0  0  0  0  0
    4.6660   -1.4540    0.0000 C   0  0  0  0  0  0  0  0  0  0  0  0
    3.8000   -1.9540    0.0000 C   0  0  0  0  0  0  0  0  0  0  0  0
    3.8000   -2.9540    0.0000 C   0  0  0  0  0  0  0  0  0  0  0  0
    5.5321   -2.9540    0.0000 C   0  0  0  0  0  0  0  0  0  0  0  0
    2.9061   -1.4194    0.0000 C   0  0  0  0  0  0  0  0  0  0  0  0
    2.9061   -3.4887    0.0000 C   0  0  0  0  0  0  0  0  0  0  0  0
    2.0000   -1.9332    0.0000 C   0  0  0  0  0  0  0  0  0  0  0  0
    2.0000   -2.9748    0.0000 C   0  0  0  0  0  0  0  0  0  0  0  0
   10.3653    0.8654    0.0000 H   0  0  0  0  0  0  0  0  0  0  0  0
   11.0556    1.2639    0.0000 H   0  0  0  0  0  0  0  0  0  0  0  0
    8.4980    2.7405    0.0000 H   0  0  0  0  0  0  0  0  0  0  0  0
    8.4980    1.9434    0.0000 H   0  0  0  0  0  0  0  0  0  0  0  0
   11.4479    1.9434    0.0000 H   0  0  0  0  0  0  0  0  0  0  0  0
   11.4479    2.7405    0.0000 H   0  0  0  0  0  0  0  0  0  0  0  0
    9.5806    3.8186    0.0000 H   0  0  0  0  0  0  0  0  0  0  0  0
    8.8904    3.4200    0.0000 H   0  0  0  0  0  0  0  0  0  0  0  0
   11.5099    3.7640    0.0000 H   0  0  0  0  0  0  0  0  0  0  0  0
   11.2830    4.6110    0.0000 H   0  0  0  0  0  0  0  0  0  0  0  0
   10.4360    4.3840    0.0000 H   0  0  0  0  0  0  0  0  0  0  0  0
    7.6630    1.1469    0.0000 H   0  0  0  0  0  0  0  0  0  0  0  0
   10.0930   -0.2561    0.0000 H   0  0  0  0  0  0  0  0  0  0  0  0
    9.2830   -1.6591    0.0000 H   0  0  0  0  0  0  0  0  0  0  0  0
    6.0397   -0.0512    0.0000 H   0  0  0  0  0  0  0  0  0  0  0  0
    4.6660   -4.0740    0.0000 H   0  0  0  0  0  0  0  0  0  0  0  0
    2.9132   -4.1086    0.0000 H   0  0  0  0  0  0  0  0  0  0  0  0
    4.1291   -0.1440    0.0000 H   0  0  0  0  0  0  0  0  0  0  0  0
    5.2030   -0.1440    0.0000 H   0  0  0  0  0  0  0  0  0  0  0  0
    1.4643   -1.6211    0.0000 H   0  0  0  0  0  0  0  0  0  0  0  0
    1.4643   -3.2869    0.0000 H   0  0  0  0  0  0  0  0  0  0  0  0
  1 26  1  0  0  0  0
  2 25  2  0  0  0  0
  3  9  1  0  0  0  0
  3 10  1  0  0  0  0
  3 13  1  0  0  0  0
  4 11  1  0  0  0  0
  4 12  1  0  0  0  0
  4 14  1  0  0  0  0
  5 16  1  0  0  0  0
  5 20  1  0  0  0  0
  5 44  1  0  0  0  0
  6 18  1  0  0  0  0
  6 20  2  0  0  0  0
  7 24  1  0  0  0  0
  7 25  1  0  0  0  0
  7 45  1  0  0  0  0
  8 22  1  0  0  0  0
  8 47  1  0  0  0  0
  8 48  1  0  0  0  0
  9 11  1  0  0  0  0
  9 30  1  0  0  0  0
  9 31  1  0  0  0  0
 10 12  1  0  0  0  0
 10 32  1  0  0  0  0
 10 33  1  0  0  0  0
 11 34  1  0  0  0  0
 11 35  1  0  0  0  0
 12 36  1  0  0  0  0
 12 37  1  0  0  0  0
 13 15  2  0  0  0  0
 13 17  1  0  0  0  0
 14 38  1  0  0  0  0
 14 39  1  0  0  0  0
 14 40  1  0  0  0  0
 15 16  1  0  0  0  0
 15 41  1  0  0  0  0
 16 18  2  0  0  0  0
 17 19  2  0  0  0  0
 17 42  1  0  0  0  0
 18 19  1  0  0  0  0
 19 43  1  0  0  0  0
 20 21  1  0  0  0  0
 21 22  2  0  0  0  0
 21 25  1  0  0  0  0
 22 23  1  0  0  0  0
 23 24  2  0  0  0  0
 23 26  1  0  0  0  0
 24 27  1  0  0  0  0
 26 28  2  0  0  0  0
 27 29  2  0  0  0  0
 27 46  1  0  0  0  0
 28 29  1  0  0  0  0
 28 49  1  0  0  0  0
 29 50  1  0  0  0  0
M  END
> <PUBCHEM_COMPOUND_CID>
135398510

> <PUBCHEM_COMPOUND_CANONICALIZED>
1

> <PUBCHEM_CACTVS_COMPLEXITY>
678

> <PUBCHEM_CACTVS_HBOND_ACCEPTOR>
6

> <PUBCHEM_CACTVS_HBOND_DONOR>
3

> <PUBCHEM_CACTVS_ROTATABLE_BOND>
2

> <PUBCHEM_CACTVS_SUBSKEYS>
AAADceB7oQAAAAAAAAAAAAAAAAAAAWAAAAA8YIEAAAAAAFiB9AAAHwAQAAAADAjBnwwz0LfJkACoAydydACCgC2hEqAJmSE4dNiIaKrA2dGUJAholALIyWcQgAAOAACAAAQCACAAAQAACAQAQAAAAAAAAA==

> <PUBCHEM_IUPAC_OPENEYE_NAME>
4-amino-5-fluoro-3-[6-(4-methylpiperazin-1-yl)-1H-benzimidazol-2-yl]-1H-quinolin-2-one

> <PUBCHEM_IUPAC_CAS_NAME>
4-amino-5-fluoro-3-[6-(4-methyl-1-piperazinyl)-1H-benzimidazol-2-yl]-1H-quinolin-2-one

> <PUBCHEM_IUPAC_NAME_MARKUP>
4-amino-5-fluoro-3-[6-(4-methylpiperazin-1-yl)-1<I>H</I>-benzimidazol-2-yl]-1<I>H</I>-quinolin-2-one

> <PUBCHEM_IUPAC_NAME>
4-amino-5-fluoro-3-[6-(4-methylpiperazin-1-yl)-1H-benzimidazol-2-yl]-1H-quinolin-2-one

> <PUBCHEM_IUPAC_SYSTEMATIC_NAME>
4-azanyl-5-fluoranyl-3-[6-(4-methylpiperazin-1-yl)-1H-benzimidazol-2-yl]-1H-quinolin-2-one

> <PUBCHEM_IUPAC_TRADITIONAL_NAME>
4-amino-5-fluoro-3-[6-(4-methylpiperazino)-1H-benzimidazol-2-yl]carbostyril

> <PUBCHEM_IUPAC_INCHI>
InChI=1S/C21H21FN6O/c1-27-7-9-28(10-8-27)12-5-6-14-16(11-12)25-20(24-14)18-19(23)17-13(22)3-2-4-15(17)26-21(18)29/h2-6,11H,7-10H2,1H3,(H,24,25)(H3,23,26,29)

> <PUBCHEM_IUPAC_INCHIKEY>
PIQCTGMSNWUMAF-UHFFFAOYSA-N

> <PUBCHEM_XLOGP3_AA>
1.6

> <PUBCHEM_EXACT_MASS>
392.17608748

> <PUBCHEM_MOLECULAR_FORMULA>
C21H21FN6O

> <PUBCHEM_MOLECULAR_WEIGHT>
392.4

> <PUBCHEM_OPENEYE_CAN_SMILES>
CN1CCN(CC1)C2=CC3=C(C=C2)N=C(N3)C4=C(C5=C(C=CC=C5F)NC4=O)N

> <PUBCHEM_OPENEYE_ISO_SMILES>
CN1CCN(CC1)C2=CC3=C(C=C2)N=C(N3)C4=C(C5=C(C=CC=C5F)NC4=O)N

> <PUBCHEM_CACTVS_TPSA>
90.3

> <PUBCHEM_MONOISOTOPIC_WEIGHT>
392.17608748

> <PUBCHEM_TOTAL_CHARGE>
0

> <PUBCHEM_HEAVY_ATOM_COUNT>
29

> <PUBCHEM_ATOM_DEF_STEREO_COUNT>
0

> <PUBCHEM_ATOM_UDEF_STEREO_COUNT>
0

> <PUBCHEM_BOND_DEF_STEREO_COUNT>
0

> <PUBCHEM_BOND_UDEF_STEREO_COUNT>
0

> <PUBCHEM_ISOTOPIC_ATOM_COUNT>
0

> <PUBCHEM_COMPONENT_COUNT>
1

> <PUBCHEM_CACTVS_TAUTO_COUNT>
-1

> <PUBCHEM_COORDINATE_TYPE>
1
5
255

> <PUBCHEM_BONDANNOTATIONS>
13  15  8
13  17  8
15  16  8
16  18  8
17  19  8
18  19  8
21  22  8
21  25  8
22  23  8
23  24  8
23  26  8
24  27  8
26  28  8
27  29  8
28  29  8
5  16  8
5  20  8
6  18  8
6  20  8
7  24  8
7  25  8

$$$$
139407400
  -OEChem-11282412102D

 68 72  0     1  0  0  0  0  0999 V2000
    2.0000    6.0000    0.0000 F   0  0  0  0  0  0  0  0  0  0  0  0
    5.4641   -3.0000    0.0000 O   0  0  0  0  0  0  0  0  0  0  0  0
    2.0000    4.0000    0.0000 O   0  0  0  0  0  0  0  0  0  0  0  0
    6.3301   -6.5000    0.0000 N   0  0  0  0  0  0  0  0  0  0  0  0
    3.7320    4.0000    0.0000 N   0  0  0  0  0  0  0  0  0  0  0  0
    6.3301   -0.5000    0.0000 N   0  0  0  0  0  0  0  0  0  0  0  0
    4.5981   -0.5000    0.0000 N   0  0  0  0  0  0  0  0  0  0  0  0
    5.4641    7.0000    0.0000 N   0  0  0  0  0  0  0  0  0  0  0  0
    8.9282    5.0000    0.0000 N   0  0  0  0  0  0  0  0  0  0  0  0
    6.3301   -4.5000    0.0000 C   0  0  0  0  0  0  0  0  0  0  0  0
    7.1962   -5.0000    0.0000 C   0  0  0  0  0  0  0  0  0  0  0  0
    5.4641   -5.0000    0.0000 C   0  0  0  0  0  0  0  0  0  0  0  0
    7.1962   -6.0000    0.0000 C   0  0  0  0  0  0  0  0  0  0  0  0
    5.4641   -6.0000    0.0000 C   0  0  0  0  0  0  0  0  0  0  0  0
    6.3301   -3.5000    0.0000 C   0  0  0  0  0  0  0  0  0  0  0  0
    6.3301   -7.5000    0.0000 C   0  0  0  0  0  0  0  0  0  0  0  0
    5.4641   -2.0000    0.0000 C   0  0  0  0  0  0  0  0  0  0  0  0
    3.7320    3.0000    0.0000 C   0  0  1  0  0  0  0  0  0  0  0  0
    4.5981    2.5000    0.0000 C   0  0  0  0  0  0  0  0  0  0  0  0
    6.3301   -1.5000    0.0000 C   0  0  0  0  0  0  0  0  0  0  0  0
    4.5981   -1.5000    0.0000 C   0  0  0  0  0  0  0  0  0  0  0  0
    2.8660    2.5000    0.0000 C   0  0  0  0  0  0  0  0  0  0  0  0
    5.4641    1.0000    0.0000 C   0  0  0  0  0  0  0  0  0  0  0  0
    4.5981    1.5000    0.0000 C   0  0  0  0  0  0  0  0  0  0  0  0
    5.4641   -0.0000    0.0000 C   0  0  0  0  0  0  0  0  0  0  0  0
    5.4641    3.0000    0.0000 C   0  0  0  0  0  0  0  0  0  0  0  0
    4.5981    4.5000    0.0000 C   0  0  0  0  0  0  0  0  0  0  0  0
    2.8660    4.5000    0.0000 C   0  0  0  0  0  0  0  0  0  0  0  0
    4.5981    5.5000    0.0000 C   0  0  0  0  0  0  0  0  0  0  0  0
    6.3301    1.5000    0.0000 C   0  0  0  0  0  0  0  0  0  0  0  0
    6.3301    2.5000    0.0000 C   0  0  0  0  0  0  0  0  0  0  0  0
    2.8660    5.5000    0.0000 C   0  0  0  0  0  0  0  0  0  0  0  0
    3.7320    6.0000    0.0000 C   0  0  0  0  0  0  0  0  0  0  0  0
    5.4641    6.0000    0.0000 C   0  0  0  0  0  0  0  0  0  0  0  0
    6.3301    5.5000    0.0000 C   0  0  0  0  0  0  0  0  0  0  0  0
    7.1962    6.0000    0.0000 C   0  0  0  0  0  0  0  0  0  0  0  0
    6.3301    7.5000    0.0000 C   0  0  0  0  0  0  0  0  0  0  0  0
    7.1962    7.0000    0.0000 C   0  0  0  0  0  0  0  0  0  0  0  0
    8.0622    5.5000    0.0000 C   0  0  0  0  0  0  0  0  0  0  0  0
    6.8671   -4.1900    0.0000 H   0  0  0  0  0  0  0  0  0  0  0  0
    7.8067   -5.1077    0.0000 H   0  0  0  0  0  0  0  0  0  0  0  0
    7.4082   -4.4174    0.0000 H   0  0  0  0  0  0  0  0  0  0  0  0
    5.2520   -4.4174    0.0000 H   0  0  0  0  0  0  0  0  0  0  0  0
    4.8535   -5.1077    0.0000 H   0  0  0  0  0  0  0  0  0  0  0  0
    7.4082   -6.5826    0.0000 H   0  0  0  0  0  0  0  0  0  0  0  0
    7.8067   -5.8923    0.0000 H   0  0  0  0  0  0  0  0  0  0  0  0
    4.8535   -5.8923    0.0000 H   0  0  0  0  0  0  0  0  0  0  0  0
    5.2520   -6.5826    0.0000 H   0  0  0  0  0  0  0  0  0  0  0  0
    6.9407   -3.6077    0.0000 H   0  0  0  0  0  0  0  0  0  0  0  0
    6.5422   -2.9174    0.0000 H   0  0  0  0  0  0  0  0  0  0  0  0
    5.7101   -7.5000    0.0000 H   0  0  0  0  0  0  0  0  0  0  0  0
    6.3301   -8.1200    0.0000 H   0  0  0  0  0  0  0  0  0  0  0  0
    6.9501   -7.5000    0.0000 H   0  0  0  0  0  0  0  0  0  0  0  0
    3.1951    3.3100    0.0000 H   0  0  0  0  0  0  0  0  0  0  0  0
    6.8671   -1.8100    0.0000 H   0  0  0  0  0  0  0  0  0  0  0  0
    4.0611   -1.8100    0.0000 H   0  0  0  0  0  0  0  0  0  0  0  0
    2.5560    3.0369    0.0000 H   0  0  0  0  0  0  0  0  0  0  0  0
    2.3291    2.1900    0.0000 H   0  0  0  0  0  0  0  0  0  0  0  0
    3.1760    1.9631    0.0000 H   0  0  0  0  0  0  0  0  0  0  0  0
    4.0611    1.1900    0.0000 H   0  0  0  0  0  0  0  0  0  0  0  0
    5.4641    3.6200    0.0000 H   0  0  0  0  0  0  0  0  0  0  0  0
    5.1350    4.1900    0.0000 H   0  0  0  0  0  0  0  0  0  0  0  0
    6.8671    1.1900    0.0000 H   0  0  0  0  0  0  0  0  0  0  0  0
    6.8671    2.8100    0.0000 H   0  0  0  0  0  0  0  0  0  0  0  0
    3.7320    6.6200    0.0000 H   0  0  0  0  0  0  0  0  0  0  0  0
    6.3301    4.8800    0.0000 H   0  0  0  0  0  0  0  0  0  0  0  0
    6.3301    8.1200    0.0000 H   0  0  0  0  0  0  0  0  0  0  0  0
    7.7331    7.3100    0.0000 H   0  0  0  0  0  0  0  0  0  0  0  0
  1 32  1  0  0  0  0
  2 15  1  0  0  0  0
  2 17  1  0  0  0  0
  3 28  2  0  0  0  0
  4 13  1  0  0  0  0
  4 14  1  0  0  0  0
  4 16  1  0  0  0  0
  5 18  1  0  0  0  0
  5 27  1  0  0  0  0
  5 28  1  0  0  0  0
  6 20  2  0  0  0  0
  6 25  1  0  0  0  0
  7 21  1  0  0  0  0
  7 25  2  0  0  0  0
  8 34  2  0  0  0  0
  8 37  1  0  0  0  0
  9 39  3  0  0  0  0
 10 11  1  0  0  0  0
 10 12  1  0  0  0  0
 10 15  1  0  0  0  0
 10 40  1  0  0  0  0
 11 13  1  0  0  0  0
 11 41  1  0  0  0  0
 11 42  1  0  0  0  0
 12 14  1  0  0  0  0
 12 43  1  0  0  0  0
 12 44  1  0  0  0  0
 13 45  1  0  0  0  0
 13 46  1  0  0  0  0
 14 47  1  0  0  0  0
 14 48  1  0  0  0  0
 15 49  1  0  0  0  0
 15 50  1  0  0  0  0
 16 51  1  0  0  0  0
 16 52  1  0  0  0  0
 16 53  1  0  0  0  0
 17 20  1  0  0  0  0
 17 21  2  0  0  0  0
 18 19  1  0  0  0  0
 18 22  1  1  0  0  0
 18 54  1  0  0  0  0
 19 24  1  0  0  0  0
 19 26  2  0  0  0  0
 20 55  1  0  0  0  0
 21 56  1  0  0  0  0
 22 57  1  0  0  0  0
 22 58  1  0  0  0  0
 22 59  1  0  0  0  0
 23 24  2  0  0  0  0
 23 25  1  0  0  0  0
 23 30  1  0  0  0  0
 24 60  1  0  0  0  0
 26 31  1  0  0  0  0
 26 61  1  0  0  0  0
 27 29  2  0  0  0  0
 27 62  1  0  0  0  0
 28 32  1  0  0  0  0
 29 33  1  0  0  0  0
 29 34  1  0  0  0  0
 30 31  2  0  0  0  0
 30 63  1  0  0  0  0
 31 64  1  0  0  0  0
 32 33  2  0  0  0  0
 33 65  1  0  0  0  0
 34 35  1  0  0  0  0
 35 36  2  0  0  0  0
 35 66  1  0  0  0  0
 36 38  1  0  0  0  0
 36 39  1  0  0  0  0
 37 38  2  0  0  0  0
 37 67  1  0  0  0  0
 38 68  1  0  0  0  0
M  END
> <PUBCHEM_COMPOUND_CID>
139407400

> <PUBCHEM_COMPOUND_CANONICALIZED>
1

> <PUBCHEM_CACTVS_COMPLEXITY>
962

> <PUBCHEM_CACTVS_HBOND_ACCEPTOR>
8

> <PUBCHEM_CACTVS_HBOND_DONOR>
0

> <PUBCHEM_CACTVS_ROTATABLE_BOND>
7

> <PUBCHEM_CACTVS_SUBSKEYS>
AAADceB7sQAAAAAAAAAAAAAAAAAAAAAAAAA8WLECAAAAAAAB8AAAHwAAAAAADSzhnwY/lpcIFAC4Bzd3dASiiCkxQqAJ2CA7ZNiOqOLA2dGHLAjshgLYya8wgMAOAAACAAAAAAAAAAQAAAAAAAAAAAAAAA==

> <PUBCHEM_IUPAC_OPENEYE_NAME>
2-[5-fluoro-1-[(1R)-1-[3-[5-[(1-methyl-4-piperidyl)methoxy]pyrimidin-2-yl]phenyl]ethyl]-6-oxo-3-pyridyl]pyridine-4-carbonitrile

> <PUBCHEM_IUPAC_CAS_NAME>
2-[5-fluoro-1-[(1R)-1-[3-[5-[(1-methyl-4-piperidinyl)methoxy]-2-pyrimidinyl]phenyl]ethyl]-6-oxo-3-pyridinyl]-4-pyridinecarbonitrile

> <PUBCHEM_IUPAC_NAME_MARKUP>
2-[5-fluoro-1-[(1<I>R</I>)-1-[3-[5-[(1-methylpiperidin-4-yl)methoxy]pyrimidin-2-yl]phenyl]ethyl]-6-oxopyridin-3-yl]pyridine-4-carbonitrile

> <PUBCHEM_IUPAC_NAME>
2-[5-fluoro-1-[(1R)-1-[3-[5-[(1-methylpiperidin-4-yl)methoxy]pyrimidin-2-yl]phenyl]ethyl]-6-oxopyridin-3-yl]pyridine-4-carbonitrile

> <PUBCHEM_IUPAC_SYSTEMATIC_NAME>
2-[5-fluoranyl-1-[(1R)-1-[3-[5-[(1-methylpiperidin-4-yl)methoxy]pyrimidin-2-yl]phenyl]ethyl]-6-oxidanylidene-pyridin-3-yl]pyridine-4-carbonitrile

> <PUBCHEM_IUPAC_TRADITIONAL_NAME>
2-[5-fluoro-6-keto-1-[(1R)-1-[3-[5-[(1-methyl-4-piperidyl)methoxy]pyrimidin-2-yl]phenyl]ethyl]-3-pyridyl]isonicotinonitrile

> <PUBCHEM_IUPAC_INCHI>
InChI=1S/C30H29FN6O2/c1-20(37-18-25(14-27(31)30(37)38)28-12-22(15-32)6-9-33-28)23-4-3-5-24(13-23)29-34-16-26(17-35-29)39-19-21-7-10-36(2)11-8-21/h3-6,9,12-14,16-18,20-21H,7-8,10-11,19H2,1-2H3/t20-/m1/s1

> <PUBCHEM_IUPAC_INCHIKEY>
UDDRTVZAZBIBBN-HXUWFJFHSA-N

> <PUBCHEM_XLOGP3_AA>
3.2

> <PUBCHEM_EXACT_MASS>
524.23360235

> <PUBCHEM_MOLECULAR_FORMULA>
C30H29FN6O2

> <PUBCHEM_MOLECULAR_WEIGHT>
524.6

> <PUBCHEM_OPENEYE_CAN_SMILES>
CC(C1=CC=CC(=C1)C2=NC=C(C=N2)OCC3CCN(CC3)C)N4C=C(C=C(C4=O)F)C5=NC=CC(=C5)C#N

> <PUBCHEM_OPENEYE_ISO_SMILES>
C[C@H](C1=CC=CC(=C1)C2=NC=C(C=N2)OCC3CCN(CC3)C)N4C=C(C=C(C4=O)F)C5=NC=CC(=C5)C#N

> <PUBCHEM_CACTVS_TPSA>
95.2

> <PUBCHEM_MONOISOTOPIC_WEIGHT>
524.23360235

> <PUBCHEM_TOTAL_CHARGE>
0

> <PUBCHEM_HEAVY_ATOM_COUNT>
39

> <PUBCHEM_ATOM_DEF_STEREO_COUNT>
1

> <PUBCHEM_ATOM_UDEF_STEREO_COUNT>
0

> <PUBCHEM_BOND_DEF_STEREO_COUNT>
0

> <PUBCHEM_BOND_UDEF_STEREO_COUNT>
0

> <PUBCHEM_ISOTOPIC_ATOM_COUNT>
0

> <PUBCHEM_COMPONENT_COUNT>
1

> <PUBCHEM_CACTVS_TAUTO_COUNT>
-1

> <PUBCHEM_COORDINATE_TYPE>
1
5
255

> <PUBCHEM_BONDANNOTATIONS>
17  20  8
17  21  8
18  22  5
19  24  8
19  26  8
23  24  8
23  30  8
26  31  8
27  29  8
28  32  8
29  33  8
30  31  8
32  33  8
34  35  8
35  36  8
36  38  8
37  38  8
5  27  8
5  28  8
6  20  8
6  25  8
7  21  8
7  25  8
8  34  8
8  37  8

$$$$
67390313
  -OEChem-11282412102D

 83 87  0     0  0  0  0  0  0999 V2000
    1.7044    6.9018    0.0000 F   0  0  0  0  0  0  0  0  0  0  0  0
    0.0000    8.9254    0.0000 F   0  0  0  0  0  0  0  0  0  0  0  0
    1.1441    9.7566    0.0000 F   0  0  0  0  0  0  0  0  0  0  0  0
    0.8313    7.7812    0.0000 F   0  0  0  0  0  0  0  0  0  0  0  0
    3.0505    5.8117    0.0000 O   0  0  0  0  0  0  0  0  0  0  0  0
    9.5966   12.7557    0.0000 O   0  0  0  0  0  0  0  0  0  0  0  0
    3.5344   13.2557    0.0000 O   0  0  0  0  0  0  0  0  0  0  0  0
    8.7306   14.2557    0.0000 O   0  0  0  0  0  0  0  0  0  0  0  0
    4.4004   11.7557    0.0000 O   0  0  0  0  0  0  0  0  0  0  0  0
    7.6306    5.9632    0.0000 N   0  0  0  0  0  0  0  0  0  0  0  0
    9.6151    4.9329    0.0000 N   0  0  0  0  0  0  0  0  0  0  0  0
    4.6675    6.4324    0.0000 N   0  0  0  0  0  0  0  0  0  0  0  0
   10.6151    4.9329    0.0000 N   0  0  0  0  0  0  0  0  0  0  0  0
    9.6273    8.3187    0.0000 N   0  0  0  0  0  0  0  0  0  0  0  0
    9.2491    1.8940    0.0000 N   0  0  0  0  0  0  0  0  0  0  0  0
   11.9274    0.5893    0.0000 N   0  0  0  0  0  0  0  0  0  0  0  0
   10.1151    0.3941    0.0000 N   0  0  0  0  0  0  0  0  0  0  0  0
    2.6047    9.3896    0.0000 N   0  0  0  0  0  0  0  0  0  0  0  0
    9.0274    5.7419    0.0000 C   0  0  0  0  0  0  0  0  0  0  0  0
    8.2183    5.1541    0.0000 C   0  0  0  0  0  0  0  0  0  0  0  0
    8.4396    6.5509    0.0000 C   0  0  0  0  0  0  0  0  0  0  0  0
    6.6429    6.1196    0.0000 C   0  0  0  0  0  0  0  0  0  0  0  0
    6.0136    5.3424    0.0000 C   0  0  0  0  0  0  0  0  0  0  0  0
    6.2845    7.0532    0.0000 C   0  0  0  0  0  0  0  0  0  0  0  0
    9.8364    6.3297    0.0000 C   0  0  0  0  0  0  0  0  0  0  0  0
    5.0259    5.4989    0.0000 C   0  0  0  0  0  0  0  0  0  0  0  0
    5.2968    7.2096    0.0000 C   0  0  0  0  0  0  0  0  0  0  0  0
    9.3061    3.9818    0.0000 C   0  0  0  0  0  0  0  0  0  0  0  0
    9.7318    7.3242    0.0000 C   0  0  0  0  0  0  0  0  0  0  0  0
   10.1151    3.3940    0.0000 C   0  0  0  0  0  0  0  0  0  0  0  0
    3.6798    6.5889    0.0000 C   0  0  0  0  0  0  0  0  0  0  0  0
   10.9242    3.9818    0.0000 C   0  0  0  0  0  0  0  0  0  0  0  0
   10.1151    2.3940    0.0000 C   0  0  0  0  0  0  0  0  0  0  0  0
    3.3214    7.5225    0.0000 C   0  0  0  0  0  0  0  0  0  0  0  0
   10.9812    1.8940    0.0000 C   0  0  0  0  0  0  0  0  0  0  0  0
    2.3337    7.6789    0.0000 C   0  0  0  0  0  0  0  0  0  0  0  0
    3.9508    8.2996    0.0000 C   0  0  0  0  0  0  0  0  0  0  0  0
   10.9812    0.8941    0.0000 C   0  0  0  0  0  0  0  0  0  0  0  0
   11.9274    2.1988    0.0000 C   0  0  0  0  0  0  0  0  0  0  0  0
    1.9754    8.6125    0.0000 C   0  0  0  0  0  0  0  0  0  0  0  0
    3.5924    9.2332    0.0000 C   0  0  0  0  0  0  0  0  0  0  0  0
    9.2491    0.8941    0.0000 C   0  0  0  0  0  0  0  0  0  0  0  0
   12.5110    1.3940    0.0000 C   0  0  0  0  0  0  0  0  0  0  0  0
    0.9877    8.7689    0.0000 C   0  0  0  0  0  0  0  0  0  0  0  0
    6.9985   13.2557    0.0000 C   0  0  0  0  0  0  0  0  0  0  0  0
    6.1325   12.7557    0.0000 C   0  0  0  0  0  0  0  0  0  0  0  0
    7.8645   12.7557    0.0000 C   0  0  0  0  0  0  0  0  0  0  0  0
    5.2665   13.2557    0.0000 C   0  0  0  0  0  0  0  0  0  0  0  0
    8.7306   13.2557    0.0000 C   0  0  0  0  0  0  0  0  0  0  0  0
    4.4004   12.7557    0.0000 C   0  0  0  0  0  0  0  0  0  0  0  0
    7.7168    4.7897    0.0000 H   0  0  0  0  0  0  0  0  0  0  0  0
    8.5828    4.6525    0.0000 H   0  0  0  0  0  0  0  0  0  0  0  0
    8.9412    6.9154    0.0000 H   0  0  0  0  0  0  0  0  0  0  0  0
    8.0751    7.0525    0.0000 H   0  0  0  0  0  0  0  0  0  0  0  0
    7.0330    6.6014    0.0000 H   0  0  0  0  0  0  0  0  0  0  0  0
    5.8117    4.7562    0.0000 H   0  0  0  0  0  0  0  0  0  0  0  0
    6.5558    5.0418    0.0000 H   0  0  0  0  0  0  0  0  0  0  0  0
    6.8931    7.1715    0.0000 H   0  0  0  0  0  0  0  0  0  0  0  0
    6.2737    7.6731    0.0000 H   0  0  0  0  0  0  0  0  0  0  0  0
   10.1082    5.7724    0.0000 H   0  0  0  0  0  0  0  0  0  0  0  0
   10.4324    6.5006    0.0000 H   0  0  0  0  0  0  0  0  0  0  0  0
    4.4172    5.3806    0.0000 H   0  0  0  0  0  0  0  0  0  0  0  0
    5.0367    4.8790    0.0000 H   0  0  0  0  0  0  0  0  0  0  0  0
    5.4987    7.7958    0.0000 H   0  0  0  0  0  0  0  0  0  0  0  0
    4.7546    7.5102    0.0000 H   0  0  0  0  0  0  0  0  0  0  0  0
    8.7165    3.7902    0.0000 H   0  0  0  0  0  0  0  0  0  0  0  0
   11.5138    3.7902    0.0000 H   0  0  0  0  0  0  0  0  0  0  0  0
    4.5631    8.2026    0.0000 H   0  0  0  0  0  0  0  0  0  0  0  0
   12.1200    2.7881    0.0000 H   0  0  0  0  0  0  0  0  0  0  0  0
    3.9826    9.7150    0.0000 H   0  0  0  0  0  0  0  0  0  0  0  0
    8.7122    0.5841    0.0000 H   0  0  0  0  0  0  0  0  0  0  0  0
   12.1200    0.0000    0.0000 H   0  0  0  0  0  0  0  0  0  0  0  0
   13.1310    1.3940    0.0000 H   0  0  0  0  0  0  0  0  0  0  0  0
    7.3970   13.7307    0.0000 H   0  0  0  0  0  0  0  0  0  0  0  0
    6.6000   13.7307    0.0000 H   0  0  0  0  0  0  0  0  0  0  0  0
    5.7340   12.2808    0.0000 H   0  0  0  0  0  0  0  0  0  0  0  0
    6.5310   12.2808    0.0000 H   0  0  0  0  0  0  0  0  0  0  0  0
    7.4660   12.2808    0.0000 H   0  0  0  0  0  0  0  0  0  0  0  0
    8.2631   12.2808    0.0000 H   0  0  0  0  0  0  0  0  0  0  0  0
    5.6650   13.7307    0.0000 H   0  0  0  0  0  0  0  0  0  0  0  0
    4.8679   13.7307    0.0000 H   0  0  0  0  0  0  0  0  0  0  0  0
   10.1335   13.0657    0.0000 H   0  0  0  0  0  0  0  0  0  0  0  0
    2.9975   12.9457    0.0000 H   0  0  0  0  0  0  0  0  0  0  0  0
  1 36  1  0  0  0  0
  2 44  1  0  0  0  0
  3 44  1  0  0  0  0
  4 44  1  0  0  0  0
  5 31  2  0  0  0  0
  6 49  1  0  0  0  0
  6 82  1  0  0  0  0
  7 50  1  0  0  0  0
  7 83  1  0  0  0  0
  8 49  2  0  0  0  0
  9 50  2  0  0  0  0
 10 20  1  0  0  0  0
 10 21  1  0  0  0  0
 10 22  1  0  0  0  0
 11 13  1  0  0  0  0
 11 19  1  0  0  0  0
 11 28  1  0  0  0  0
 12 26  1  0  0  0  0
 12 27  1  0  0  0  0
 12 31  1  0  0  0  0
 13 32  2  0  0  0  0
 14 29  3  0  0  0  0
 15 33  1  0  0  0  0
 15 42  2  0  0  0  0
 16 38  1  0  0  0  0
 16 43  1  0  0  0  0
 16 72  1  0  0  0  0
 17 38  2  0  0  0  0
 17 42  1  0  0  0  0
 18 40  2  0  0  0  0
 18 41  1  0  0  0  0
 19 20  1  0  0  0  0
 19 21  1  0  0  0  0
 19 25  1  0  0  0  0
 20 51  1  0  0  0  0
 20 52  1  0  0  0  0
 21 53  1  0  0  0  0
 21 54  1  0  0  0  0
 22 23  1  0  0  0  0
 22 24  1  0  0  0  0
 22 55  1  0  0  0  0
 23 26  1  0  0  0  0
 23 56  1  0  0  0  0
 23 57  1  0  0  0  0
 24 27  1  0  0  0  0
 24 58  1  0  0  0  0
 24 59  1  0  0  0  0
 25 29  1  0  0  0  0
 25 60  1  0  0  0  0
 25 61  1  0  0  0  0
 26 62  1  0  0  0  0
 26 63  1  0  0  0  0
 27 64  1  0  0  0  0
 27 65  1  0  0  0  0
 28 30  2  0  0  0  0
 28 66  1  0  0  0  0
 30 32  1  0  0  0  0
 30 33  1  0  0  0  0
 31 34  1  0  0  0  0
 32 67  1  0  0  0  0
 33 35  2  0  0  0  0
 34 36  2  0  0  0  0
 34 37  1  0  0  0  0
 35 38  1  0  0  0  0
 35 39  1  0  0  0  0
 36 40  1  0  0  0  0
 37 41  2  0  0  0  0
 37 68  1  0  0  0  0
 39 43  2  0  0  0  0
 39 69  1  0  0  0  0
 40 44  1  0  0  0  0
 41 70  1  0  0  0  0
 42 71  1  0  0  0  0
 43 73  1  0  0  0  0
 45 46  1  0  0  0  0
 45 47  1  0  0  0  0
 45 74  1  0  0  0  0
 45 75  1  0  0  0  0
 46 48  1  0  0  0  0
 46 76  1  0  0  0  0
 46 77  1  0  0  0  0
 47 49  1  0  0  0  0
 47 78  1  0  0  0  0
 47 79  1  0  0  0  0
 48 50  1  0  0  0  0
 48 80  1  0  0  0  0
 48 81  1  0  0  0  0
M  END
> <PUBCHEM_COMPOUND_CID>
67390313

> <PUBCHEM_COMPOUND_CANONICALIZED>
1

> <PUBCHEM_CACTVS_COMPLEXITY>
1090

> <PUBCHEM_CACTVS_HBOND_ACCEPTOR>
15

> <PUBCHEM_CACTVS_HBOND_DONOR>
3

> <PUBCHEM_CACTVS_ROTATABLE_BOND>
10

> <PUBCHEM_CACTVS_SUBSKEYS>
AAADcfB/+cAAAAAAAAAAAAAAAABYAWLAAAAsWLAAAAAAAFgB/gAAHwAYCAAADKjBnxw9uN/JkgC6Bzf3fACShCm1gqAZ2aE4ZNiI6PLA3dGU5QhsngLIya+cSAAOAAAAAAAAAAAAAAAAAAAAAAAAAAAAAA==

> <PUBCHEM_IUPAC_OPENEYE_NAME>
adipic acid;2-[1-[1-[3-fluoro-2-(trifluoromethyl)pyridine-4-carbonyl]-4-piperidyl]-3-[4-(7H-pyrrolo[2,3-d]pyrimidin-4-yl)pyrazol-1-yl]azetidin-3-yl]acetonitrile

> <PUBCHEM_IUPAC_CAS_NAME>
2-[1-[1-[[3-fluoro-2-(trifluoromethyl)-4-pyridinyl]-oxomethyl]-4-piperidinyl]-3-[4-(7H-pyrrolo[2,3-d]pyrimidin-4-yl)-1-pyrazolyl]-3-azetidinyl]acetonitrile;hexanedioic acid

> <PUBCHEM_IUPAC_NAME_MARKUP>
2-[1-[1-[3-fluoro-2-(trifluoromethyl)pyridine-4-carbonyl]piperidin-4-yl]-3-[4-(7<I>H</I>-pyrrolo[2,3-d]pyrimidin-4-yl)pyrazol-1-yl]azetidin-3-yl]acetonitrile;hexanedioic acid

> <PUBCHEM_IUPAC_NAME>
2-[1-[1-[3-fluoro-2-(trifluoromethyl)pyridine-4-carbonyl]piperidin-4-yl]-3-[4-(7H-pyrrolo[2,3-d]pyrimidin-4-yl)pyrazol-1-yl]azetidin-3-yl]acetonitrile;hexanedioic acid

> <PUBCHEM_IUPAC_SYSTEMATIC_NAME>
2-[1-[1-[3-fluoranyl-2-(trifluoromethyl)pyridin-4-yl]carbonylpiperidin-4-yl]-3-[4-(7H-pyrrolo[2,3-d]pyrimidin-4-yl)pyrazol-1-yl]azetidin-3-yl]ethanenitrile;hexanedioic acid

> <PUBCHEM_IUPAC_TRADITIONAL_NAME>
adipic acid;2-[1-[1-[3-fluoro-2-(trifluoromethyl)isonicotinoyl]-4-piperidyl]-3-[4-(7H-pyrrolo[2,3-d]pyrimidin-4-yl)pyrazol-1-yl]azetidin-3-yl]acetonitrile

> <PUBCHEM_IUPAC_INCHI>
InChI=1S/C26H23F4N9O.C6H10O4/c27-20-18(1-7-32-22(20)26(28,29)30)24(40)37-9-3-17(4-10-37)38-13-25(14-38,5-6-31)39-12-16(11-36-39)21-19-2-8-33-23(19)35-15-34-21;7-5(8)3-1-2-4-6(9)10/h1-2,7-8,11-12,15,17H,3-5,9-10,13-14H2,(H,33,34,35);1-4H2,(H,7,8)(H,9,10)

> <PUBCHEM_IUPAC_INCHIKEY>
CEGWJIQFBNFMHQ-UHFFFAOYSA-N

> <PUBCHEM_EXACT_MASS>
699.25407784

> <PUBCHEM_MOLECULAR_FORMULA>
C32H33F4N9O5

> <PUBCHEM_MOLECULAR_WEIGHT>
699.7

> <PUBCHEM_OPENEYE_CAN_SMILES>
C1CN(CCC1N2CC(C2)(CC#N)N3C=C(C=N3)C4=C5C=CNC5=NC=N4)C(=O)C6=C(C(=NC=C6)C(F)(F)F)F.C(CCC(=O)O)CC(=O)O

> <PUBCHEM_OPENEYE_ISO_SMILES>
C1CN(CCC1N2CC(C2)(CC#N)N3C=C(C=N3)C4=C5C=CNC5=NC=N4)C(=O)C6=C(C(=NC=C6)C(F)(F)F)F.C(CCC(=O)O)CC(=O)O

> <PUBCHEM_CACTVS_TPSA>
194

> <PUBCHEM_MONOISOTOPIC_WEIGHT>
699.25407784

> <PUBCHEM_TOTAL_CHARGE>
0

> <PUBCHEM_HEAVY_ATOM_COUNT>
50

> <PUBCHEM_ATOM_DEF_STEREO_COUNT>
0

> <PUBCHEM_ATOM_UDEF_STEREO_COUNT>
0

> <PUBCHEM_BOND_DEF_STEREO_COUNT>
0

> <PUBCHEM_BOND_UDEF_STEREO_COUNT>
0

> <PUBCHEM_ISOTOPIC_ATOM_COUNT>
0

> <PUBCHEM_COMPONENT_COUNT>
2

> <PUBCHEM_CACTVS_TAUTO_COUNT>
-1

> <PUBCHEM_COORDINATE_TYPE>
1
5
255

> <PUBCHEM_BONDANNOTATIONS>
11  13  8
11  28  8
13  32  8
15  33  8
15  42  8
16  38  8
16  43  8
17  38  8
17  42  8
18  40  8
18  41  8
28  30  8
30  32  8
33  35  8
34  36  8
34  37  8
35  38  8
35  39  8
36  40  8
37  41  8
39  43  8

$$$$
44194962
  -OEChem-11282412102D

 61 62  0     0  0  0  0  0  0999 V2000
    5.7099    0.0000    0.0000 Cl  0  0  0  0  0  0  0  0  0  0  0  0
    5.7099    2.5153    0.0000 Cl  0  0  0  0  0  0  0  0  0  0  0  0
    0.6106    9.7049    0.0000 O   0  0  0  0  0  0  0  0  0  0  0  0
    5.8067   10.7049    0.0000 O   0  0  0  0  0  0  0  0  0  0  0  0
    5.8067   12.7049    0.0000 O   0  0  0  0  0  0  0  0  0  0  0  0
    2.3426   10.7049    0.0000 N   0  0  0  0  0  0  0  0  0  0  0  0
    9.2872    9.6703    0.0000 N   0  0  0  0  0  0  0  0  0  0  0  0
    9.2988   12.7396    0.0000 N   0  0  0  0  0  0  0  0  0  0  0  0
   10.2048   11.1841    0.0000 N   0  0  0  0  0  0  0  0  0  0  0  0
    3.2087   11.2049    0.0000 C   0  0  0  0  0  0  0  0  0  0  0  0
    2.3426    9.7049    0.0000 C   0  0  0  0  0  0  0  0  0  0  0  0
    1.4766   11.2049    0.0000 C   0  0  0  0  0  0  0  0  0  0  0  0
    4.0747   10.7049    0.0000 C   0  0  0  0  0  0  0  0  0  0  0  0
    1.4766    9.2049    0.0000 C   0  0  0  0  0  0  0  0  0  0  0  0
    0.6106   10.7049    0.0000 C   0  0  0  0  0  0  0  0  0  0  0  0
    4.9407   11.2049    0.0000 C   0  0  0  0  0  0  0  0  0  0  0  0
    6.6728   11.2049    0.0000 C   0  0  0  0  0  0  0  0  0  0  0  0
    8.4048   11.2049    0.0000 C   0  0  0  0  0  0  0  0  0  0  0  0
    7.5388   10.7049    0.0000 C   0  0  0  0  0  0  0  0  0  0  0  0
    6.6728   12.2049    0.0000 C   0  0  0  0  0  0  0  0  0  0  0  0
    8.4048   12.2049    0.0000 C   0  0  0  0  0  0  0  0  0  0  0  0
    7.5388   12.7049    0.0000 C   0  0  0  0  0  0  0  0  0  0  0  0
    9.2988   10.6703    0.0000 C   0  0  0  0  0  0  0  0  0  0  0  0
   10.1474    9.1604    0.0000 C   0  0  0  0  0  0  0  0  0  0  0  0
   10.2048   12.2257    0.0000 C   0  0  0  0  0  0  0  0  0  0  0  0
    5.8067   13.7049    0.0000 C   0  0  0  0  0  0  0  0  0  0  0  0
   10.1358    8.1604    0.0000 C   0  0  0  0  0  0  0  0  0  0  0  0
   11.0191    9.6503    0.0000 C   0  0  0  0  0  0  0  0  0  0  0  0
   10.9960    7.6504    0.0000 C   0  0  0  0  0  0  0  0  0  0  0  0
   11.8793    9.1403    0.0000 C   0  0  0  0  0  0  0  0  0  0  0  0
   11.8677    8.1404    0.0000 C   0  0  0  0  0  0  0  0  0  0  0  0
   10.9844    6.6505    0.0000 C   0  0  0  0  0  0  0  0  0  0  0  0
   10.9729    5.6506    0.0000 C   0  0  0  0  0  0  0  0  0  0  0  0
    3.6072   11.6799    0.0000 H   0  0  0  0  0  0  0  0  0  0  0  0
    2.8101   11.6799    0.0000 H   0  0  0  0  0  0  0  0  0  0  0  0
    2.5547    9.1223    0.0000 H   0  0  0  0  0  0  0  0  0  0  0  0
    2.9532    9.8126    0.0000 H   0  0  0  0  0  0  0  0  0  0  0  0
    1.8751   11.6799    0.0000 H   0  0  0  0  0  0  0  0  0  0  0  0
    1.0781   11.6799    0.0000 H   0  0  0  0  0  0  0  0  0  0  0  0
    3.6762   10.2300    0.0000 H   0  0  0  0  0  0  0  0  0  0  0  0
    4.4732   10.2300    0.0000 H   0  0  0  0  0  0  0  0  0  0  0  0
    1.0781    8.7300    0.0000 H   0  0  0  0  0  0  0  0  0  0  0  0
    1.8751    8.7300    0.0000 H   0  0  0  0  0  0  0  0  0  0  0  0
    0.3985   11.2875    0.0000 H   0  0  0  0  0  0  0  0  0  0  0  0
    0.0000   10.5973    0.0000 H   0  0  0  0  0  0  0  0  0  0  0  0
    5.3392   11.6799    0.0000 H   0  0  0  0  0  0  0  0  0  0  0  0
    4.5422   11.6799    0.0000 H   0  0  0  0  0  0  0  0  0  0  0  0
    7.5388   10.0849    0.0000 H   0  0  0  0  0  0  0  0  0  0  0  0
    7.5388   13.3249    0.0000 H   0  0  0  0  0  0  0  0  0  0  0  0
    8.7467    9.3666    0.0000 H   0  0  0  0  0  0  0  0  0  0  0  0
   10.7406   12.5378    0.0000 H   0  0  0  0  0  0  0  0  0  0  0  0
    9.5953    7.8566    0.0000 H   0  0  0  0  0  0  0  0  0  0  0  0
    6.4267   13.7049    0.0000 H   0  0  0  0  0  0  0  0  0  0  0  0
    5.8067   14.3249    0.0000 H   0  0  0  0  0  0  0  0  0  0  0  0
    5.1867   13.7049    0.0000 H   0  0  0  0  0  0  0  0  0  0  0  0
   11.0263   10.2703    0.0000 H   0  0  0  0  0  0  0  0  0  0  0  0
   12.4198    9.4441    0.0000 H   0  0  0  0  0  0  0  0  0  0  0  0
   12.4011    7.8242    0.0000 H   0  0  0  0  0  0  0  0  0  0  0  0
   10.9657    5.0306    0.0000 H   0  0  0  0  0  0  0  0  0  0  0  0
    6.7099    0.0000    0.0000 H   0  0  0  0  0  0  0  0  0  0  0  0
    6.7099    2.5153    0.0000 H   0  0  0  0  0  0  0  0  0  0  0  0
  1 60  1  0  0  0  0
  2 61  1  0  0  0  0
  3 14  1  0  0  0  0
  3 15  1  0  0  0  0
  4 16  1  0  0  0  0
  4 17  1  0  0  0  0
  5 20  1  0  0  0  0
  5 26  1  0  0  0  0
  6 10  1  0  0  0  0
  6 11  1  0  0  0  0
  6 12  1  0  0  0  0
  7 23  1  0  0  0  0
  7 24  1  0  0  0  0
  7 50  1  0  0  0  0
  8 21  1  0  0  0  0
  8 25  2  0  0  0  0
  9 23  2  0  0  0  0
  9 25  1  0  0  0  0
 10 13  1  0  0  0  0
 10 34  1  0  0  0  0
 10 35  1  0  0  0  0
 11 14  1  0  0  0  0
 11 36  1  0  0  0  0
 11 37  1  0  0  0  0
 12 15  1  0  0  0  0
 12 38  1  0  0  0  0
 12 39  1  0  0  0  0
 13 16  1  0  0  0  0
 13 40  1  0  0  0  0
 13 41  1  0  0  0  0
 14 42  1  0  0  0  0
 14 43  1  0  0  0  0
 15 44  1  0  0  0  0
 15 45  1  0  0  0  0
 16 46  1  0  0  0  0
 16 47  1  0  0  0  0
 17 19  1  0  0  0  0
 17 20  2  0  0  0  0
 18 19  2  0  0  0  0
 18 21  1  0  0  0  0
 18 23  1  0  0  0  0
 19 48  1  0  0  0  0
 20 22  1  0  0  0  0
 21 22  2  0  0  0  0
 22 49  1  0  0  0  0
 24 27  1  0  0  0  0
 24 28  2  0  0  0  0
 25 51  1  0  0  0  0
 26 53  1  0  0  0  0
 26 54  1  0  0  0  0
 26 55  1  0  0  0  0
 27 29  2  0  0  0  0
 27 52  1  0  0  0  0
 28 30  1  0  0  0  0
 28 56  1  0  0  0  0
 29 31  1  0  0  0  0
 29 32  1  0  0  0  0
 30 31  2  0  0  0  0
 30 57  1  0  0  0  0
 31 58  1  0  0  0  0
 32 33  3  0  0  0  0
 33 59  1  0  0  0  0
M  END
> <PUBCHEM_COMPOUND_CID>
44194962

> <PUBCHEM_COMPOUND_CANONICALIZED>
1

> <PUBCHEM_CACTVS_COMPLEXITY>
591

> <PUBCHEM_CACTVS_HBOND_ACCEPTOR>
7

> <PUBCHEM_CACTVS_HBOND_DONOR>
3

> <PUBCHEM_CACTVS_ROTATABLE_BOND>
9

> <PUBCHEM_CACTVS_SUBSKEYS>
AAADceB7sAAGAAAAAAAAAAAAAAAAAAAAAAA8eIEAAAAAAACx9AAAHgAQAAAADAzhngY39vfIFADgGyZjZAiCiCkxIqAJ2CA+7JiPLuLE+duHPCru0Bva6Cew0BMOIEABQgACQABAgAKEAASAAAAAAAAAAA==

> <PUBCHEM_IUPAC_OPENEYE_NAME>
N-(3-ethynylphenyl)-7-methoxy-6-(3-morpholinopropoxy)quinazolin-4-amine;dihydrochloride

> <PUBCHEM_IUPAC_CAS_NAME>
N-(3-ethynylphenyl)-7-methoxy-6-[3-(4-morpholinyl)propoxy]-4-quinazolinamine;dihydrochloride

> <PUBCHEM_IUPAC_NAME_MARKUP>
<I>N</I>-(3-ethynylphenyl)-7-methoxy-6-(3-morpholin-4-ylpropoxy)quinazolin-4-amine;dihydrochloride

> <PUBCHEM_IUPAC_NAME>
N-(3-ethynylphenyl)-7-methoxy-6-(3-morpholin-4-ylpropoxy)quinazolin-4-amine;dihydrochloride

> <PUBCHEM_IUPAC_SYSTEMATIC_NAME>
N-(3-ethynylphenyl)-7-methoxy-6-(3-morpholin-4-ylpropoxy)quinazolin-4-amine;dihydrochloride

> <PUBCHEM_IUPAC_TRADITIONAL_NAME>
(3-ethynylphenyl)-[7-methoxy-6-(3-morpholinopropoxy)quinazolin-4-yl]amine;dihydrochloride

> <PUBCHEM_IUPAC_INCHI>
InChI=1S/C24H26N4O3.2ClH/c1-3-18-6-4-7-19(14-18)27-24-20-15-23(22(29-2)16-21(20)25-17-26-24)31-11-5-8-28-9-12-30-13-10-28;;/h1,4,6-7,14-17H,5,8-13H2,2H3,(H,25,26,27);2*1H

> <PUBCHEM_IUPAC_INCHIKEY>
HHXJUNYMDONXMO-UHFFFAOYSA-N

> <PUBCHEM_EXACT_MASS>
490.1538462

> <PUBCHEM_MOLECULAR_FORMULA>
C24H28Cl2N4O3

> <PUBCHEM_MOLECULAR_WEIGHT>
491.4

> <PUBCHEM_OPENEYE_CAN_SMILES>
COC1=C(C=C2C(=C1)N=CN=C2NC3=CC=CC(=C3)C#C)OCCCN4CCOCC4.Cl.Cl

> <PUBCHEM_OPENEYE_ISO_SMILES>
COC1=C(C=C2C(=C1)N=CN=C2NC3=CC=CC(=C3)C#C)OCCCN4CCOCC4.Cl.Cl

> <PUBCHEM_CACTVS_TPSA>
68.7

> <PUBCHEM_MONOISOTOPIC_WEIGHT>
490.1538462

> <PUBCHEM_TOTAL_CHARGE>
0

> <PUBCHEM_HEAVY_ATOM_COUNT>
33

> <PUBCHEM_ATOM_DEF_STEREO_COUNT>
0

> <PUBCHEM_ATOM_UDEF_STEREO_COUNT>
0

> <PUBCHEM_BOND_DEF_STEREO_COUNT>
0

> <PUBCHEM_BOND_UDEF_STEREO_COUNT>
0

> <PUBCHEM_ISOTOPIC_ATOM_COUNT>
0

> <PUBCHEM_COMPONENT_COUNT>
3

> <PUBCHEM_CACTVS_TAUTO_COUNT>
-1

> <PUBCHEM_COORDINATE_TYPE>
1
5
255

> <PUBCHEM_BONDANNOTATIONS>
17  19  8
17  20  8
18  19  8
18  21  8
18  23  8
20  22  8
21  22  8
24  27  8
24  28  8
27  29  8
28  30  8
29  31  8
30  31  8
8  21  8
8  25  8
9  23  8
9  25  8

$$$$
86278355
  -OEChem-11282412102D

156158  0     1  0  0  0  0  0999 V2000
   23.9936    4.6754    0.0000 S   0  0  0  0  0  0  0  0  0  0  0  0
    6.3301   -1.4160    0.0000 O   0  0  0  0  0  0  0  0  0  0  0  0
    9.1263   -0.2553    0.0000 O   0  0  0  0  0  0  0  0  0  0  0  0
    7.4321   -0.6154    0.0000 O   0  0  0  0  0  0  0  0  0  0  0  0
    5.4641   -2.9160    0.0000 O   0  0  0  0  0  0  0  0  0  0  0  0
   11.1478    2.7302    0.0000 O   0  0  0  0  0  0  0  0  0  0  0  0
   14.2089    0.8250    0.0000 O   0  0  0  0  0  0  0  0  0  0  0  0
    5.4641   -3.9160    0.0000 O   0  0  0  0  0  0  0  0  0  0  0  0
    4.5981   -5.4160    0.0000 O   0  0  0  0  0  0  0  0  0  0  0  0
   16.2304    3.8106    0.0000 O   0  0  0  0  0  0  0  0  0  0  0  0
   22.9058    2.7913    0.0000 O   0  0  0  0  0  0  0  0  0  0  0  0
   20.5504    5.4073    0.0000 O   0  0  0  0  0  0  0  0  0  0  0  0
   26.7961    6.7116    0.0000 O   0  0  0  0  0  0  0  0  0  0  0  0
   25.2138    7.4160    0.0000 O   0  0  0  0  0  0  0  0  0  0  0  0
    6.2731    0.6717    0.0000 N   0  0  0  0  0  0  0  0  0  0  0  0
   10.6126    1.0830    0.0000 N   0  0  0  0  0  0  0  0  0  0  0  0
    3.7320   -2.9160    0.0000 N   0  0  0  0  0  0  0  0  0  0  0  0
   13.0499    2.1122    0.0000 N   0  0  0  0  0  0  0  0  0  0  0  0
   15.6952    2.1633    0.0000 N   0  0  0  0  0  0  0  0  0  0  0  0
   21.5209    3.9128    0.0000 N   0  0  0  0  0  0  0  0  0  0  0  0
   25.9826    4.8845    0.0000 N   0  0  0  0  0  0  0  0  0  0  0  0
    5.4641    0.0840    0.0000 C   0  0  1  0  0  0  0  0  0  0  0  0
    4.6551    0.6717    0.0000 C   0  0  0  0  0  0  0  0  0  0  0  0
    5.4641   -0.9160    0.0000 C   0  0  1  0  0  0  0  0  0  0  0  0
    4.9641    1.6228    0.0000 C   0  0  0  0  0  0  0  0  0  0  0  0
    5.9641    1.6228    0.0000 C   0  0  0  0  0  0  0  0  0  0  0  0
    4.5981   -1.4160    0.0000 C   0  0  1  0  0  0  0  0  0  0  0  0
    7.2242    0.3627    0.0000 C   0  0  0  0  0  0  0  0  0  0  0  0
    9.6615    1.3920    0.0000 C   0  0  2  0  0  0  0  0  0  0  0  0
    8.9184    0.7228    0.0000 C   0  0  1  0  0  0  0  0  0  0  0  0
    7.9673    1.0319    0.0000 C   0  0  0  0  0  0  0  0  0  0  0  0
    9.4536    2.3701    0.0000 C   0  0  2  0  0  0  0  0  0  0  0  0
    3.7320   -0.9160    0.0000 C   0  0  0  0  0  0  0  0  0  0  0  0
    4.5981   -2.4160    0.0000 C   0  0  0  0  0  0  0  0  0  0  0  0
   10.1968    3.0392    0.0000 C   0  0  0  0  0  0  0  0  0  0  0  0
    8.5026    2.6791    0.0000 C   0  0  0  0  0  0  0  0  0  0  0  0
   11.3557    1.7521    0.0000 C   0  0  0  0  0  0  0  0  0  0  0  0
   12.3068    1.4431    0.0000 C   0  0  2  0  0  0  0  0  0  0  0  0
    6.3301   -2.4160    0.0000 C   0  0  0  0  0  0  0  0  0  0  0  0
   10.8205    0.1048    0.0000 C   0  0  0  0  0  0  0  0  0  0  0  0
    9.9888    4.0174    0.0000 C   0  0  0  0  0  0  0  0  0  0  0  0
   12.5147    0.4649    0.0000 C   0  0  0  0  0  0  0  0  0  0  0  0
    3.7320   -3.9160    0.0000 C   0  0  1  0  0  0  0  0  0  0  0  0
   10.0773   -0.5643    0.0000 C   0  0  0  0  0  0  0  0  0  0  0  0
   13.4657    0.1559    0.0000 C   0  0  0  0  0  0  0  0  0  0  0  0
   11.7715   -0.2042    0.0000 C   0  0  0  0  0  0  0  0  0  0  0  0
    2.8660   -4.4160    0.0000 C   0  0  0  0  0  0  0  0  0  0  0  0
   14.7441    2.4723    0.0000 C   0  0  2  0  0  0  0  0  0  0  0  0
   14.0010    1.8032    0.0000 C   0  0  0  0  0  0  0  0  0  0  0  0
    4.5981   -4.4160    0.0000 C   0  0  0  0  0  0  0  0  0  0  0  0
   14.5362    3.4505    0.0000 C   0  0  0  0  0  0  0  0  0  0  0  0
    2.8660   -5.4160    0.0000 C   0  0  0  0  0  0  0  0  0  0  0  0
   15.2794    4.1196    0.0000 C   0  0  0  0  0  0  0  0  0  0  0  0
   13.5852    3.7595    0.0000 C   0  0  0  0  0  0  0  0  0  0  0  0
   16.4383    2.8324    0.0000 C   0  0  0  0  0  0  0  0  0  0  0  0
   15.9031    1.1852    0.0000 C   0  0  0  0  0  0  0  0  0  0  0  0
    3.7320   -5.9160    0.0000 C   0  0  0  0  0  0  0  0  0  0  0  0
    2.0000   -5.9160    0.0000 C   0  0  0  0  0  0  0  0  0  0  0  0
   17.3894    2.5234    0.0000 C   0  0  0  0  0  0  0  0  0  0  0  0
   18.1325    3.1925    0.0000 C   0  0  0  0  0  0  0  0  0  0  0  0
   19.0836    2.8835    0.0000 C   0  0  0  0  0  0  0  0  0  0  0  0
   19.8267    3.5526    0.0000 C   0  0  0  0  0  0  0  0  0  0  0  0
    3.7320   -6.9160    0.0000 C   0  0  0  0  0  0  0  0  0  0  0  0
    2.0000   -6.9160    0.0000 C   0  0  0  0  0  0  0  0  0  0  0  0
   20.7778    3.2436    0.0000 C   0  0  0  0  0  0  0  0  0  0  0  0
    2.8660   -7.4160    0.0000 C   0  0  0  0  0  0  0  0  0  0  0  0
   22.9991    4.5709    0.0000 C   0  0  3  0  0  0  0  0  0  0  0  0
   22.3299    5.3140    0.0000 C   0  0  0  0  0  0  0  0  0  0  0  0
   22.4991    3.7048    0.0000 C   0  0  0  0  0  0  0  0  0  0  0  0
   21.4164    4.9073    0.0000 C   0  0  0  0  0  0  0  0  0  0  0  0
   24.4003    5.5890    0.0000 C   0  0  0  0  0  0  0  0  0  0  0  0
   25.3949    5.6935    0.0000 C   0  0  1  0  0  0  0  0  0  0  0  0
   25.8016    6.6070    0.0000 C   0  0  0  0  0  0  0  0  0  0  0  0
    6.2215   -0.3019    0.0000 H   0  0  0  0  0  0  0  0  0  0  0  0
    4.0887    0.9239    0.0000 H   0  0  0  0  0  0  0  0  0  0  0  0
    4.3451    0.1348    0.0000 H   0  0  0  0  0  0  0  0  0  0  0  0
    5.4641   -1.5360    0.0000 H   0  0  0  0  0  0  0  0  0  0  0  0
    5.0289    2.2394    0.0000 H   0  0  0  0  0  0  0  0  0  0  0  0
    4.3576    1.7517    0.0000 H   0  0  0  0  0  0  0  0  0  0  0  0
    6.5706    1.7517    0.0000 H   0  0  0  0  0  0  0  0  0  0  0  0
    5.8993    2.2394    0.0000 H   0  0  0  0  0  0  0  0  0  0  0  0
    4.5981   -0.7960    0.0000 H   0  0  0  0  0  0  0  0  0  0  0  0
   10.1223    1.8068    0.0000 H   0  0  0  0  0  0  0  0  0  0  0  0
    9.5080    0.5312    0.0000 H   0  0  0  0  0  0  0  0  0  0  0  0
    8.2584    1.5793    0.0000 H   0  0  0  0  0  0  0  0  0  0  0  0
    7.4788    1.4136    0.0000 H   0  0  0  0  0  0  0  0  0  0  0  0
    9.3247    2.9766    0.0000 H   0  0  0  0  0  0  0  0  0  0  0  0
    4.0420   -0.3791    0.0000 H   0  0  0  0  0  0  0  0  0  0  0  0
    3.1951   -0.6060    0.0000 H   0  0  0  0  0  0  0  0  0  0  0  0
    3.4220   -1.4530    0.0000 H   0  0  0  0  0  0  0  0  0  0  0  0
   10.5253    2.5135    0.0000 H   0  0  0  0  0  0  0  0  0  0  0  0
   10.7716    3.2715    0.0000 H   0  0  0  0  0  0  0  0  0  0  0  0
    8.6941    3.2688    0.0000 H   0  0  0  0  0  0  0  0  0  0  0  0
    7.9129    2.8707    0.0000 H   0  0  0  0  0  0  0  0  0  0  0  0
    8.3110    2.0895    0.0000 H   0  0  0  0  0  0  0  0  0  0  0  0
   12.1779    2.0495    0.0000 H   0  0  0  0  0  0  0  0  0  0  0  0
    5.7101   -2.4160    0.0000 H   0  0  0  0  0  0  0  0  0  0  0  0
    6.3301   -3.0360    0.0000 H   0  0  0  0  0  0  0  0  0  0  0  0
    6.9501   -2.4160    0.0000 H   0  0  0  0  0  0  0  0  0  0  0  0
   10.2140   -0.0241    0.0000 H   0  0  0  0  0  0  0  0  0  0  0  0
   10.9494   -0.5016    0.0000 H   0  0  0  0  0  0  0  0  0  0  0  0
   11.4269    0.2337    0.0000 H   0  0  0  0  0  0  0  0  0  0  0  0
    3.1951   -2.6060    0.0000 H   0  0  0  0  0  0  0  0  0  0  0  0
   10.5953    4.1463    0.0000 H   0  0  0  0  0  0  0  0  0  0  0  0
    9.8599    4.6238    0.0000 H   0  0  0  0  0  0  0  0  0  0  0  0
    9.3824    3.8885    0.0000 H   0  0  0  0  0  0  0  0  0  0  0  0
   11.9250    0.6565    0.0000 H   0  0  0  0  0  0  0  0  0  0  0  0
    4.2690   -3.6060    0.0000 H   0  0  0  0  0  0  0  0  0  0  0  0
    9.8858   -1.1540    0.0000 H   0  0  0  0  0  0  0  0  0  0  0  0
   10.6670   -0.7559    0.0000 H   0  0  0  0  0  0  0  0  0  0  0  0
   10.2689    0.0253    0.0000 H   0  0  0  0  0  0  0  0  0  0  0  0
   12.9210    2.7186    0.0000 H   0  0  0  0  0  0  0  0  0  0  0  0
   13.2742   -0.4338    0.0000 H   0  0  0  0  0  0  0  0  0  0  0  0
   14.0554   -0.0357    0.0000 H   0  0  0  0  0  0  0  0  0  0  0  0
   13.6573    0.7456    0.0000 H   0  0  0  0  0  0  0  0  0  0  0  0
   11.3567    0.2565    0.0000 H   0  0  0  0  0  0  0  0  0  0  0  0
   11.3108   -0.6191    0.0000 H   0  0  0  0  0  0  0  0  0  0  0  0
   12.1864   -0.6650    0.0000 H   0  0  0  0  0  0  0  0  0  0  0  0
    2.6540   -3.8334    0.0000 H   0  0  0  0  0  0  0  0  0  0  0  0
    2.2554   -4.5237    0.0000 H   0  0  0  0  0  0  0  0  0  0  0  0
   14.8730    1.8659    0.0000 H   0  0  0  0  0  0  0  0  0  0  0  0
   14.4073    4.0569    0.0000 H   0  0  0  0  0  0  0  0  0  0  0  0
   15.6942    3.6588    0.0000 H   0  0  0  0  0  0  0  0  0  0  0  0
   15.7401    4.5344    0.0000 H   0  0  0  0  0  0  0  0  0  0  0  0
   14.8645    4.5803    0.0000 H   0  0  0  0  0  0  0  0  0  0  0  0
   13.7767    4.3491    0.0000 H   0  0  0  0  0  0  0  0  0  0  0  0
   12.9955    3.9511    0.0000 H   0  0  0  0  0  0  0  0  0  0  0  0
   13.3936    3.1698    0.0000 H   0  0  0  0  0  0  0  0  0  0  0  0
   15.2966    1.0562    0.0000 H   0  0  0  0  0  0  0  0  0  0  0  0
   16.0320    0.5787    0.0000 H   0  0  0  0  0  0  0  0  0  0  0  0
   16.5095    1.3140    0.0000 H   0  0  0  0  0  0  0  0  0  0  0  0
    4.2690   -5.6060    0.0000 H   0  0  0  0  0  0  0  0  0  0  0  0
    1.4631   -5.6060    0.0000 H   0  0  0  0  0  0  0  0  0  0  0  0
   17.0983    1.9760    0.0000 H   0  0  0  0  0  0  0  0  0  0  0  0
   17.8780    2.1417    0.0000 H   0  0  0  0  0  0  0  0  0  0  0  0
    6.0010   -4.2260    0.0000 H   0  0  0  0  0  0  0  0  0  0  0  0
   18.4236    3.7400    0.0000 H   0  0  0  0  0  0  0  0  0  0  0  0
   17.6440    3.5742    0.0000 H   0  0  0  0  0  0  0  0  0  0  0  0
   18.7925    2.3361    0.0000 H   0  0  0  0  0  0  0  0  0  0  0  0
   19.5722    2.5018    0.0000 H   0  0  0  0  0  0  0  0  0  0  0  0
   20.1178    4.1001    0.0000 H   0  0  0  0  0  0  0  0  0  0  0  0
   19.3382    3.9344    0.0000 H   0  0  0  0  0  0  0  0  0  0  0  0
    4.2690   -7.2260    0.0000 H   0  0  0  0  0  0  0  0  0  0  0  0
    1.4631   -7.2260    0.0000 H   0  0  0  0  0  0  0  0  0  0  0  0
   20.4867    2.6962    0.0000 H   0  0  0  0  0  0  0  0  0  0  0  0
   21.2664    2.8619    0.0000 H   0  0  0  0  0  0  0  0  0  0  0  0
    2.8660   -8.0360    0.0000 H   0  0  0  0  0  0  0  0  0  0  0  0
   23.2213    5.1497    0.0000 H   0  0  0  0  0  0  0  0  0  0  0  0
   22.8315    5.6784    0.0000 H   0  0  0  0  0  0  0  0  0  0  0  0
   22.0199    5.8510    0.0000 H   0  0  0  0  0  0  0  0  0  0  0  0
   24.4436    6.2074    0.0000 H   0  0  0  0  0  0  0  0  0  0  0  0
   23.7988    5.7389    0.0000 H   0  0  0  0  0  0  0  0  0  0  0  0
   26.0115    5.7583    0.0000 H   0  0  0  0  0  0  0  0  0  0  0  0
   26.5992    4.9493    0.0000 H   0  0  0  0  0  0  0  0  0  0  0  0
   25.7305    4.3181    0.0000 H   0  0  0  0  0  0  0  0  0  0  0  0
   27.0483    7.2780    0.0000 H   0  0  0  0  0  0  0  0  0  0  0  0
  1 67  1  0  0  0  0
  1 71  1  0  0  0  0
 24  2  1  6  0  0  0
  2 39  1  0  0  0  0
 30  3  1  6  0  0  0
  3 44  1  0  0  0  0
  4 28  2  0  0  0  0
  5 34  2  0  0  0  0
  6 37  2  0  0  0  0
  7 49  2  0  0  0  0
  8 50  1  0  0  0  0
  8136  1  0  0  0  0
  9 50  2  0  0  0  0
 10 55  2  0  0  0  0
 11 69  2  0  0  0  0
 12 70  2  0  0  0  0
 13 73  1  0  0  0  0
 13156  1  0  0  0  0
 14 73  2  0  0  0  0
 15 22  1  0  0  0  0
 15 26  1  0  0  0  0
 15 28  1  0  0  0  0
 29 16  1  6  0  0  0
 16 37  1  0  0  0  0
 16 40  1  0  0  0  0
 17 34  1  0  0  0  0
 43 17  1  6  0  0  0
 17103  1  0  0  0  0
 38 18  1  1  0  0  0
 18 49  1  0  0  0  0
 18112  1  0  0  0  0
 48 19  1  6  0  0  0
 19 55  1  0  0  0  0
 19 56  1  0  0  0  0
 20 65  1  0  0  0  0
 20 69  1  0  0  0  0
 20 70  1  0  0  0  0
 72 21  1  1  0  0  0
 21154  1  0  0  0  0
 21155  1  0  0  0  0
 22 23  1  0  0  0  0
 22 24  1  0  0  0  0
 22 74  1  1  0  0  0
 23 25  1  0  0  0  0
 23 75  1  0  0  0  0
 23 76  1  0  0  0  0
 24 27  1  0  0  0  0
 24 77  1  0  0  0  0
 25 26  1  0  0  0  0
 25 78  1  0  0  0  0
 25 79  1  0  0  0  0
 26 80  1  0  0  0  0
 26 81  1  0  0  0  0
 27 33  1  6  0  0  0
 27 34  1  0  0  0  0
 27 82  1  0  0  0  0
 28 31  1  0  0  0  0
 29 30  1  0  0  0  0
 29 32  1  0  0  0  0
 29 83  1  0  0  0  0
 30 31  1  0  0  0  0
 30 84  1  0  0  0  0
 31 85  1  0  0  0  0
 31 86  1  0  0  0  0
 32 35  1  0  0  0  0
 32 36  1  1  0  0  0
 32 87  1  0  0  0  0
 33 88  1  0  0  0  0
 33 89  1  0  0  0  0
 33 90  1  0  0  0  0
 35 41  1  0  0  0  0
 35 91  1  0  0  0  0
 35 92  1  0  0  0  0
 36 93  1  0  0  0  0
 36 94  1  0  0  0  0
 36 95  1  0  0  0  0
 37 38  1  0  0  0  0
 38 42  1  0  0  0  0
 38 96  1  0  0  0  0
 39 97  1  0  0  0  0
 39 98  1  0  0  0  0
 39 99  1  0  0  0  0
 40100  1  0  0  0  0
 40101  1  0  0  0  0
 40102  1  0  0  0  0
 41104  1  0  0  0  0
 41105  1  0  0  0  0
 41106  1  0  0  0  0
 42 45  1  0  0  0  0
 42 46  1  0  0  0  0
 42107  1  0  0  0  0
 43 47  1  0  0  0  0
 43 50  1  0  0  0  0
 43108  1  0  0  0  0
 44109  1  0  0  0  0
 44110  1  0  0  0  0
 44111  1  0  0  0  0
 45113  1  0  0  0  0
 45114  1  0  0  0  0
 45115  1  0  0  0  0
 46116  1  0  0  0  0
 46117  1  0  0  0  0
 46118  1  0  0  0  0
 47 52  1  0  0  0  0
 47119  1  0  0  0  0
 47120  1  0  0  0  0
 48 49  1  0  0  0  0
 48 51  1  0  0  0  0
 48121  1  0  0  0  0
 51 53  1  0  0  0  0
 51 54  1  0  0  0  0
 51122  1  0  0  0  0
 52 57  2  0  0  0  0
 52 58  1  0  0  0  0
 53123  1  0  0  0  0
 53124  1  0  0  0  0
 53125  1  0  0  0  0
 54126  1  0  0  0  0
 54127  1  0  0  0  0
 54128  1  0  0  0  0
 55 59  1  0  0  0  0
 56129  1  0  0  0  0
 56130  1  0  0  0  0
 56131  1  0  0  0  0
 57 63  1  0  0  0  0
 57132  1  0  0  0  0
 58 64  2  0  0  0  0
 58133  1  0  0  0  0
 59 60  1  0  0  0  0
 59134  1  0  0  0  0
 59135  1  0  0  0  0
 60 61  1  0  0  0  0
 60137  1  0  0  0  0
 60138  1  0  0  0  0
 61 62  1  0  0  0  0
 61139  1  0  0  0  0
 61140  1  0  0  0  0
 62 65  1  0  0  0  0
 62141  1  0  0  0  0
 62142  1  0  0  0  0
 63 66  2  0  0  0  0
 63143  1  0  0  0  0
 64 66  1  0  0  0  0
 64144  1  0  0  0  0
 65145  1  0  0  0  0
 65146  1  0  0  0  0
 66147  1  0  0  0  0
 67 68  1  0  0  0  0
 67 69  1  0  0  0  0
 67148  1  0  0  0  0
 68 70  1  0  0  0  0
 68149  1  0  0  0  0
 68150  1  0  0  0  0
 71 72  1  0  0  0  0
 71151  1  0  0  0  0
 71152  1  0  0  0  0
 72 73  1  0  0  0  0
 72153  1  0  0  0  0
M  END
> <PUBCHEM_COMPOUND_CID>
86278355

> <PUBCHEM_COMPOUND_CANONICALIZED>
1

> <PUBCHEM_CACTVS_COMPLEXITY>
1880

> <PUBCHEM_CACTVS_HBOND_ACCEPTOR>
15

> <PUBCHEM_CACTVS_HBOND_DONOR>
5

> <PUBCHEM_CACTVS_ROTATABLE_BOND>
31

> <PUBCHEM_CACTVS_SUBSKEYS>
AAADcfB/vABAAAAAAAAAAAAAAAAAAWLAAAAwAAAAAAAAAAABAAAAHgQQCAAADTzl2AayCIPABgiIAiHSGAACAAAgABAIiIGIAIgKYDagkTGVYAAmtiC4iAed2OKOAAAAAAAAAAAAAAAAAAAAAAAAAAAAAA==

> <PUBCHEM_IUPAC_OPENEYE_NAME>
(2S)-2-[[(2R,3R)-3-[(2S)-1-[(3R,4S,5S)-4-[[(2S)-2-[[(2S)-2-[6-[3-[(2R)-2-amino-2-carboxy-ethyl]sulfanyl-2,5-dioxo-pyrrolidin-1-yl]hexanoyl-methyl-amino]-3-methyl-butanoyl]amino]-3-methyl-butanoyl]-methyl-amino]-3-methoxy-5-methyl-heptanoyl]pyrrolidin-2-yl]-3-methoxy-2-methyl-propanoyl]amino]-3-phenyl-propanoic acid

> <PUBCHEM_IUPAC_CAS_NAME>
(2S)-2-[[(2R,3R)-3-[(2S)-1-[(3R,4S,5S)-4-[[(2S)-2-[[(2S)-2-[[6-[3-[[(2R)-2-amino-2-carboxyethyl]thio]-2,5-dioxo-1-pyrrolidinyl]-1-oxohexyl]-methylamino]-3-methyl-1-oxobutyl]amino]-3-methyl-1-oxobutyl]-methylamino]-3-methoxy-5-methyl-1-oxoheptyl]-2-pyrrolidinyl]-3-methoxy-2-methyl-1-oxopropyl]amino]-3-phenylpropanoic acid

> <PUBCHEM_IUPAC_NAME_MARKUP>
(2<I>S</I>)-2-[[(2<I>R</I>,3<I>R</I>)-3-[(2<I>S</I>)-1-[(3<I>R</I>,4<I>S</I>,5<I>S</I>)-4-[[(2<I>S</I>)-2-[[(2<I>S</I>)-2-[6-[3-[(2<I>R</I>)-2-amino-2-carboxyethyl]sulfanyl-2,5-dioxopyrrolidin-1-yl]hexanoyl-methylamino]-3-methylbutanoyl]amino]-3-methylbutanoyl]-methylamino]-3-methoxy-5-methylheptanoyl]pyrrolidin-2-yl]-3-methoxy-2-methylpropanoyl]amino]-3-phenylpropanoic acid

> <PUBCHEM_IUPAC_NAME>
(2S)-2-[[(2R,3R)-3-[(2S)-1-[(3R,4S,5S)-4-[[(2S)-2-[[(2S)-2-[6-[3-[(2R)-2-amino-2-carboxyethyl]sulfanyl-2,5-dioxopyrrolidin-1-yl]hexanoyl-methylamino]-3-methylbutanoyl]amino]-3-methylbutanoyl]-methylamino]-3-methoxy-5-methylheptanoyl]pyrrolidin-2-yl]-3-methoxy-2-methylpropanoyl]amino]-3-phenylpropanoic acid

> <PUBCHEM_IUPAC_SYSTEMATIC_NAME>
(2S)-2-[[(2R,3R)-3-[(2S)-1-[(3R,4S,5S)-4-[[(2S)-2-[[(2S)-2-[6-[3-[(2R)-2-azanyl-3-oxidanyl-3-oxidanylidene-propyl]sulfanyl-2,5-bis(oxidanylidene)pyrrolidin-1-yl]hexanoyl-methyl-amino]-3-methyl-butanoyl]amino]-3-methyl-butanoyl]-methyl-amino]-3-methoxy-5-methyl-heptanoyl]pyrrolidin-2-yl]-3-methoxy-2-methyl-propanoyl]amino]-3-phenyl-propanoic acid

> <PUBCHEM_IUPAC_TRADITIONAL_NAME>
(2S)-2-[[(2R,3R)-3-[(2S)-1-[(3R,4S,5S)-4-[[(2S)-2-[[(2S)-2-[6-[3-[[(2R)-2-amino-2-carboxy-ethyl]thio]-2,5-diketo-pyrrolidino]hexanoyl-methyl-amino]-3-methyl-butanoyl]amino]-3-methyl-butanoyl]-methyl-amino]-3-methoxy-5-methyl-heptanoyl]pyrrolidin-2-yl]-3-methoxy-2-methyl-propanoyl]amino]-3-phenyl-propionic acid

> <PUBCHEM_IUPAC_INCHI>
InChI=1S/C52H83N7O13S/c1-12-32(6)45(38(71-10)27-41(61)58-25-19-22-37(58)46(72-11)33(7)47(63)54-36(52(69)70)26-34-20-15-13-16-21-34)57(9)50(66)43(30(2)3)55-48(64)44(31(4)5)56(8)40(60)23-17-14-18-24-59-42(62)28-39(49(59)65)73-29-35(53)51(67)68/h13,15-16,20-21,30-33,35-39,43-46H,12,14,17-19,22-29,53H2,1-11H3,(H,54,63)(H,55,64)(H,67,68)(H,69,70)/t32-,33+,35-,36-,37-,38+,39?,43-,44-,45-,46+/m0/s1

> <PUBCHEM_IUPAC_INCHIKEY>
BXTJCSYMGFJEID-XMTADJHZSA-N

> <PUBCHEM_XLOGP3_AA>
1.4

> <PUBCHEM_EXACT_MASS>
1045.57695690

> <PUBCHEM_MOLECULAR_FORMULA>
C52H83N7O13S

> <PUBCHEM_MOLECULAR_WEIGHT>
1046.3

> <PUBCHEM_OPENEYE_CAN_SMILES>
CCC(C)C(C(CC(=O)N1CCCC1C(C(C)C(=O)NC(CC2=CC=CC=C2)C(=O)O)OC)OC)N(C)C(=O)C(C(C)C)NC(=O)C(C(C)C)N(C)C(=O)CCCCCN3C(=O)CC(C3=O)SCC(C(=O)O)N

> <PUBCHEM_OPENEYE_ISO_SMILES>
CC[C@H](C)[C@@H]([C@@H](CC(=O)N1CCC[C@H]1[C@@H]([C@@H](C)C(=O)N[C@@H](CC2=CC=CC=C2)C(=O)O)OC)OC)N(C)C(=O)[C@H](C(C)C)NC(=O)[C@H](C(C)C)N(C)C(=O)CCCCCN3C(=O)CC(C3=O)SC[C@@H](C(=O)O)N

> <PUBCHEM_CACTVS_TPSA>
301

> <PUBCHEM_MONOISOTOPIC_WEIGHT>
1045.57695690

> <PUBCHEM_TOTAL_CHARGE>
0

> <PUBCHEM_HEAVY_ATOM_COUNT>
73

> <PUBCHEM_ATOM_DEF_STEREO_COUNT>
10

> <PUBCHEM_ATOM_UDEF_STEREO_COUNT>
1

> <PUBCHEM_BOND_DEF_STEREO_COUNT>
0

> <PUBCHEM_BOND_UDEF_STEREO_COUNT>
0

> <PUBCHEM_ISOTOPIC_ATOM_COUNT>
0

> <PUBCHEM_COMPONENT_COUNT>
1

> <PUBCHEM_CACTVS_TAUTO_COUNT>
-1

> <PUBCHEM_COORDINATE_TYPE>
1
5
255

> <PUBCHEM_BONDANNOTATIONS>
67  1  3
29  16  6
43  17  6
38  18  5
48  19  6
24  2  6
72  21  5
22  74  5
27  33  6
30  3  6
32  36  5
52  57  8
52  58  8
57  63  8
58  64  8
63  66  8
64  66  8

$$$$
72547837
  -OEChem-11282412102D

 60 63  0     1  0  0  0  0  0999 V2000
    4.5981    4.0600    0.0000 Cl  0  0  0  0  0  0  0  0  0  0  0  0
    8.9282   -1.4400    0.0000 F   0  0  0  0  0  0  0  0  0  0  0  0
    2.0000    0.5600    0.0000 F   0  0  0  0  0  0  0  0  0  0  0  0
    2.3660    1.9260    0.0000 F   0  0  0  0  0  0  0  0  0  0  0  0
    3.3660    0.1940    0.0000 F   0  0  0  0  0  0  0  0  0  0  0  0
    8.0622    0.0600    0.0000 O   0  0  0  0  0  0  0  0  0  0  0  0
    9.7942    3.0600    0.0000 O   0  0  0  0  0  0  0  0  0  0  0  0
    8.9282    1.5600    0.0000 N   0  0  0  0  0  0  0  0  0  0  0  0
   10.6603   -0.4400    0.0000 N   0  0  3  0  0  0  0  0  0  0  0  0
    6.3301    1.0600    0.0000 N   0  0  0  0  0  0  0  0  0  0  0  0
   11.5263    3.0600    0.0000 N   0  0  0  0  0  0  0  0  0  0  0  0
   11.5263   -1.9400    0.0000 N   0  0  0  0  0  0  0  0  0  0  0  0
   10.6603   -3.4400    0.0000 N   0  0  0  0  0  0  0  0  0  0  0  0
    8.9282   -3.4400    0.0000 N   0  0  0  0  0  0  0  0  0  0  0  0
    9.7942    1.0600    0.0000 C   0  0  2  0  0  0  0  0  0  0  0  0
   10.6603    1.5600    0.0000 C   0  0  2  0  0  0  0  0  0  0  0  0
    9.7942    0.0600    0.0000 C   0  0  0  0  0  0  0  0  0  0  0  0
   11.5263    1.0600    0.0000 C   0  0  0  0  0  0  0  0  0  0  0  0
   11.5263    0.0600    0.0000 C   0  0  0  0  0  0  0  0  0  0  0  0
    8.9282    2.5600    0.0000 C   0  0  0  0  0  0  0  0  0  0  0  0
    7.1962    1.5600    0.0000 C   0  0  1  0  0  0  0  0  0  0  0  0
    8.0622    3.0600    0.0000 C   0  0  0  0  0  0  0  0  0  0  0  0
    8.0622    1.0600    0.0000 C   0  0  0  0  0  0  0  0  0  0  0  0
    7.1962    2.5600    0.0000 C   0  0  0  0  0  0  0  0  0  0  0  0
   10.6603    2.5600    0.0000 C   0  0  0  0  0  0  0  0  0  0  0  0
   10.6603   -1.4400    0.0000 C   0  0  0  0  0  0  0  0  0  0  0  0
    5.4641    1.5600    0.0000 C   0  0  0  0  0  0  0  0  0  0  0  0
    9.7942   -1.9400    0.0000 C   0  0  0  0  0  0  0  0  0  0  0  0
    9.7942   -2.9400    0.0000 C   0  0  0  0  0  0  0  0  0  0  0  0
    4.5981    1.0600    0.0000 C   0  0  0  0  0  0  0  0  0  0  0  0
    5.4641    2.5600    0.0000 C   0  0  0  0  0  0  0  0  0  0  0  0
   11.5263   -2.9400    0.0000 C   0  0  0  0  0  0  0  0  0  0  0  0
    3.7320    1.5600    0.0000 C   0  0  0  0  0  0  0  0  0  0  0  0
    4.5981    3.0600    0.0000 C   0  0  0  0  0  0  0  0  0  0  0  0
    3.7320    2.5600    0.0000 C   0  0  0  0  0  0  0  0  0  0  0  0
    2.8660    1.0600    0.0000 C   0  0  0  0  0  0  0  0  0  0  0  0
    9.2573    0.7500    0.0000 H   0  0  0  0  0  0  0  0  0  0  0  0
   11.1972    1.8700    0.0000 H   0  0  0  0  0  0  0  0  0  0  0  0
    9.1836    0.1677    0.0000 H   0  0  0  0  0  0  0  0  0  0  0  0
    9.5822   -0.5226    0.0000 H   0  0  0  0  0  0  0  0  0  0  0  0
   12.1369    0.9523    0.0000 H   0  0  0  0  0  0  0  0  0  0  0  0
   11.7383    1.6426    0.0000 H   0  0  0  0  0  0  0  0  0  0  0  0
   11.7383   -0.5226    0.0000 H   0  0  0  0  0  0  0  0  0  0  0  0
   12.1369    0.1677    0.0000 H   0  0  0  0  0  0  0  0  0  0  0  0
    9.5388    2.4523    0.0000 H   0  0  0  0  0  0  0  0  0  0  0  0
    9.1403    3.1426    0.0000 H   0  0  0  0  0  0  0  0  0  0  0  0
    6.6592    1.8700    0.0000 H   0  0  0  0  0  0  0  0  0  0  0  0
    8.4607    3.5350    0.0000 H   0  0  0  0  0  0  0  0  0  0  0  0
    7.6636    3.5350    0.0000 H   0  0  0  0  0  0  0  0  0  0  0  0
    6.9841    3.1426    0.0000 H   0  0  0  0  0  0  0  0  0  0  0  0
    6.5856    2.4523    0.0000 H   0  0  0  0  0  0  0  0  0  0  0  0
    6.3301    0.4400    0.0000 H   0  0  0  0  0  0  0  0  0  0  0  0
   11.5263    3.6800    0.0000 H   0  0  0  0  0  0  0  0  0  0  0  0
   12.0632    2.7500    0.0000 H   0  0  0  0  0  0  0  0  0  0  0  0
    4.5981    0.4400    0.0000 H   0  0  0  0  0  0  0  0  0  0  0  0
    6.0010    2.8700    0.0000 H   0  0  0  0  0  0  0  0  0  0  0  0
   12.0632   -3.2500    0.0000 H   0  0  0  0  0  0  0  0  0  0  0  0
    3.1951    2.8700    0.0000 H   0  0  0  0  0  0  0  0  0  0  0  0
    8.9282   -4.0600    0.0000 H   0  0  0  0  0  0  0  0  0  0  0  0
    8.3913   -3.1300    0.0000 H   0  0  0  0  0  0  0  0  0  0  0  0
  1 34  1  0  0  0  0
  2 28  1  0  0  0  0
  3 36  1  0  0  0  0
  4 36  1  0  0  0  0
  5 36  1  0  0  0  0
  6 23  2  0  0  0  0
  7 25  2  0  0  0  0
 15  8  1  6  0  0  0
  8 20  1  0  0  0  0
  8 23  1  0  0  0  0
  9 17  1  0  0  0  0
  9 19  1  0  0  0  0
  9 26  1  0  0  0  0
 21 10  1  6  0  0  0
 10 27  1  0  0  0  0
 10 52  1  0  0  0  0
 11 25  1  0  0  0  0
 11 53  1  0  0  0  0
 11 54  1  0  0  0  0
 12 26  2  0  0  0  0
 12 32  1  0  0  0  0
 13 29  1  0  0  0  0
 13 32  2  0  0  0  0
 14 29  1  0  0  0  0
 14 59  1  0  0  0  0
 14 60  1  0  0  0  0
 15 16  1  0  0  0  0
 15 17  1  0  0  0  0
 15 37  1  0  0  0  0
 16 18  1  0  0  0  0
 16 25  1  1  0  0  0
 16 38  1  0  0  0  0
 17 39  1  0  0  0  0
 17 40  1  0  0  0  0
 18 19  1  0  0  0  0
 18 41  1  0  0  0  0
 18 42  1  0  0  0  0
 19 43  1  0  0  0  0
 19 44  1  0  0  0  0
 20 22  1  0  0  0  0
 20 45  1  0  0  0  0
 20 46  1  0  0  0  0
 21 23  1  0  0  0  0
 21 24  1  0  0  0  0
 21 47  1  0  0  0  0
 22 24  1  0  0  0  0
 22 48  1  0  0  0  0
 22 49  1  0  0  0  0
 24 50  1  0  0  0  0
 24 51  1  0  0  0  0
 26 28  1  0  0  0  0
 27 30  1  0  0  0  0
 27 31  2  0  0  0  0
 28 29  2  0  0  0  0
 30 33  2  0  0  0  0
 30 55  1  0  0  0  0
 31 34  1  0  0  0  0
 31 56  1  0  0  0  0
 32 57  1  0  0  0  0
 33 35  1  0  0  0  0
 33 36  1  0  0  0  0
 34 35  2  0  0  0  0
 35 58  1  0  0  0  0
M  END
> <PUBCHEM_COMPOUND_CID>
72547837

> <PUBCHEM_COMPOUND_CANONICALIZED>
1

> <PUBCHEM_CACTVS_COMPLEXITY>
809

> <PUBCHEM_CACTVS_HBOND_ACCEPTOR>
11

> <PUBCHEM_CACTVS_HBOND_DONOR>
3

> <PUBCHEM_CACTVS_ROTATABLE_BOND>
5

> <PUBCHEM_CACTVS_SUBSKEYS>
AAADceB7scAEAAAAAAAAAAAAAAAAAAAAAAA8WLEAAAAAAAABwAAAHwIQAAAADSrBmjw18JfIEACoAidzdACCgCkxB6AB2KGoZpiIaDrB2/GUJAholgLIyCccgQAOAAAAYAIAAAAAAADABAAAAAAAAAAAAA==

> <PUBCHEM_IUPAC_OPENEYE_NAME>
(3R,4S)-1-(6-amino-5-fluoro-pyrimidin-4-yl)-3-[(3R)-3-[3-chloro-5-(trifluoromethyl)anilino]-2-oxo-1-piperidyl]piperidine-4-carboxamide

> <PUBCHEM_IUPAC_CAS_NAME>
(3R,4S)-1-(6-amino-5-fluoro-4-pyrimidinyl)-3-[(3R)-3-[3-chloro-5-(trifluoromethyl)anilino]-2-oxo-1-piperidinyl]-4-piperidinecarboxamide

> <PUBCHEM_IUPAC_NAME_MARKUP>
(3<I>R</I>,4<I>S</I>)-1-(6-amino-5-fluoropyrimidin-4-yl)-3-[(3<I>R</I>)-3-[3-chloro-5-(trifluoromethyl)anilino]-2-oxopiperidin-1-yl]piperidine-4-carboxamide

> <PUBCHEM_IUPAC_NAME>
(3R,4S)-1-(6-amino-5-fluoropyrimidin-4-yl)-3-[(3R)-3-[3-chloro-5-(trifluoromethyl)anilino]-2-oxopiperidin-1-yl]piperidine-4-carboxamide

> <PUBCHEM_IUPAC_SYSTEMATIC_NAME>
(3R,4S)-1-(6-azanyl-5-fluoranyl-pyrimidin-4-yl)-3-[(3R)-3-[[3-chloranyl-5-(trifluoromethyl)phenyl]amino]-2-oxidanylidene-piperidin-1-yl]piperidine-4-carboxamide

> <PUBCHEM_IUPAC_TRADITIONAL_NAME>
(3R,4S)-1-(6-amino-5-fluoro-pyrimidin-4-yl)-3-[(3R)-3-[3-chloro-5-(trifluoromethyl)anilino]-2-keto-piperidino]isonipecotamide

> <PUBCHEM_IUPAC_INCHI>
InChI=1S/C22H24ClF4N7O2/c23-12-6-11(22(25,26)27)7-13(8-12)32-15-2-1-4-34(21(15)36)16-9-33(5-3-14(16)19(29)35)20-17(24)18(28)30-10-31-20/h6-8,10,14-16,32H,1-5,9H2,(H2,29,35)(H2,28,30,31)/t14-,15+,16-/m0/s1

> <PUBCHEM_IUPAC_INCHIKEY>
QLRRJMOBVVGXEJ-XHSDSOJGSA-N

> <PUBCHEM_XLOGP3_AA>
2.7

> <PUBCHEM_EXACT_MASS>
529.1616134

> <PUBCHEM_MOLECULAR_FORMULA>
C22H24ClF4N7O2

> <PUBCHEM_MOLECULAR_WEIGHT>
529.9

> <PUBCHEM_OPENEYE_CAN_SMILES>
C1CC(C(=O)N(C1)C2CN(CCC2C(=O)N)C3=NC=NC(=C3F)N)NC4=CC(=CC(=C4)C(F)(F)F)Cl

> <PUBCHEM_OPENEYE_ISO_SMILES>
C1C[C@H](C(=O)N(C1)[C@H]2CN(CC[C@@H]2C(=O)N)C3=NC=NC(=C3F)N)NC4=CC(=CC(=C4)C(F)(F)F)Cl

> <PUBCHEM_CACTVS_TPSA>
131

> <PUBCHEM_MONOISOTOPIC_WEIGHT>
529.1616134

> <PUBCHEM_TOTAL_CHARGE>
0

> <PUBCHEM_HEAVY_ATOM_COUNT>
36

> <PUBCHEM_ATOM_DEF_STEREO_COUNT>
3

> <PUBCHEM_ATOM_UDEF_STEREO_COUNT>
0

> <PUBCHEM_BOND_DEF_STEREO_COUNT>
0

> <PUBCHEM_BOND_UDEF_STEREO_COUNT>
0

> <PUBCHEM_ISOTOPIC_ATOM_COUNT>
0

> <PUBCHEM_COMPONENT_COUNT>
1

> <PUBCHEM_CACTVS_TAUTO_COUNT>
-1

> <PUBCHEM_COORDINATE_TYPE>
1
5
255

> <PUBCHEM_BONDANNOTATIONS>
21  10  6
12  26  8
12  32  8
13  29  8
13  32  8
16  25  5
26  28  8
27  30  8
27  31  8
28  29  8
30  33  8
31  34  8
33  35  8
34  35  8
15  8  6

$$$$
3038522
  -OEChem-11282412102D

 83 87  0     0  0  0  0  0  0999 V2000
    5.4641    3.7770    0.0000 O   0  0  0  0  0  0  0  0  0  0  0  0
    8.0381   -2.7473    0.0000 O   0  0  0  0  0  0  0  0  0  0  0  0
    5.4641    1.7770    0.0000 O   0  0  0  0  0  0  0  0  0  0  0  0
    9.7238   -6.7671    0.0000 O   0  0  0  0  0  0  0  0  0  0  0  0
    3.7320    6.7770    0.0000 N   0  0  0  0  0  0  0  0  0  0  0  0
    8.9446    0.7424    0.0000 N   0  0  0  0  0  0  0  0  0  0  0  0
    8.9214   -1.2574    0.0000 N   0  0  0  0  0  0  0  0  0  0  0  0
    9.8622    2.2562    0.0000 N   0  0  0  0  0  0  0  0  0  0  0  0
    9.7700   -2.7674    0.0000 N   0  0  0  0  0  0  0  0  0  0  0  0
    8.9561    3.8117    0.0000 N   0  0  0  0  0  0  0  0  0  0  0  0
    3.7320    7.7770    0.0000 C   0  0  0  0  0  0  0  0  0  0  0  0
    2.8660    6.2770    0.0000 C   0  0  0  0  0  0  0  0  0  0  0  0
    2.8660    8.2770    0.0000 C   0  0  0  0  0  0  0  0  0  0  0  0
    2.0000    6.7770    0.0000 C   0  0  0  0  0  0  0  0  0  0  0  0
    2.0000    7.7770    0.0000 C   0  0  0  0  0  0  0  0  0  0  0  0
    4.5981    6.2770    0.0000 C   0  0  0  0  0  0  0  0  0  0  0  0
    4.5981    5.2770    0.0000 C   0  0  0  0  0  0  0  0  0  0  0  0
    9.8047    0.2324    0.0000 C   0  0  0  0  0  0  0  0  0  0  0  0
    8.0728    0.2525    0.0000 C   0  0  0  0  0  0  0  0  0  0  0  0
    9.7932   -0.7675    0.0000 C   0  0  0  0  0  0  0  0  0  0  0  0
    8.0612   -0.7475    0.0000 C   0  0  0  0  0  0  0  0  0  0  0  0
    5.4641    4.7770    0.0000 C   0  0  0  0  0  0  0  0  0  0  0  0
    8.9561    1.7424    0.0000 C   0  0  0  0  0  0  0  0  0  0  0  0
    8.0622    2.2770    0.0000 C   0  0  0  0  0  0  0  0  0  0  0  0
    8.9099   -2.2574    0.0000 C   0  0  0  0  0  0  0  0  0  0  0  0
    8.0622    3.2770    0.0000 C   0  0  0  0  0  0  0  0  0  0  0  0
    6.3301    3.2770    0.0000 C   0  0  0  0  0  0  0  0  0  0  0  0
    7.1962    1.7770    0.0000 C   0  0  0  0  0  0  0  0  0  0  0  0
    7.1962    3.7770    0.0000 C   0  0  0  0  0  0  0  0  0  0  0  0
    6.3301    2.2770    0.0000 C   0  0  0  0  0  0  0  0  0  0  0  0
    9.8622    3.2978    0.0000 C   0  0  0  0  0  0  0  0  0  0  0  0
    9.7585   -3.7673    0.0000 C   0  0  0  0  0  0  0  0  0  0  0  0
    8.8867   -4.2572    0.0000 C   0  0  0  0  0  0  0  0  0  0  0  0
   10.6187   -4.2773    0.0000 C   0  0  0  0  0  0  0  0  0  0  0  0
    4.5981    2.2770    0.0000 C   0  0  0  0  0  0  0  0  0  0  0  0
    8.8752   -5.2572    0.0000 C   0  0  0  0  0  0  0  0  0  0  0  0
   10.6071   -5.2772    0.0000 C   0  0  0  0  0  0  0  0  0  0  0  0
    9.7354   -5.7672    0.0000 C   0  0  0  0  0  0  0  0  0  0  0  0
   10.5840   -7.2771    0.0000 C   0  0  0  0  0  0  0  0  0  0  0  0
   10.5724   -8.2770    0.0000 C   0  0  0  0  0  0  0  0  0  0  0  0
   11.4557   -6.7871    0.0000 C   0  0  0  0  0  0  0  0  0  0  0  0
    4.3426    7.6694    0.0000 H   0  0  0  0  0  0  0  0  0  0  0  0
    3.9441    8.3596    0.0000 H   0  0  0  0  0  0  0  0  0  0  0  0
    2.4675    5.8021    0.0000 H   0  0  0  0  0  0  0  0  0  0  0  0
    3.2646    5.8021    0.0000 H   0  0  0  0  0  0  0  0  0  0  0  0
    3.2646    8.7520    0.0000 H   0  0  0  0  0  0  0  0  0  0  0  0
    2.4675    8.7520    0.0000 H   0  0  0  0  0  0  0  0  0  0  0  0
    1.3894    6.8847    0.0000 H   0  0  0  0  0  0  0  0  0  0  0  0
    1.7880    6.1944    0.0000 H   0  0  0  0  0  0  0  0  0  0  0  0
    1.7880    8.3596    0.0000 H   0  0  0  0  0  0  0  0  0  0  0  0
    1.3894    7.6694    0.0000 H   0  0  0  0  0  0  0  0  0  0  0  0
    5.2087    6.1694    0.0000 H   0  0  0  0  0  0  0  0  0  0  0  0
    4.8101    6.8596    0.0000 H   0  0  0  0  0  0  0  0  0  0  0  0
    3.9875    5.3847    0.0000 H   0  0  0  0  0  0  0  0  0  0  0  0
    4.3860    4.6944    0.0000 H   0  0  0  0  0  0  0  0  0  0  0  0
   10.4140    0.1177    0.0000 H   0  0  0  0  0  0  0  0  0  0  0  0
   10.0235    0.8126    0.0000 H   0  0  0  0  0  0  0  0  0  0  0  0
    7.8675    0.8375    0.0000 H   0  0  0  0  0  0  0  0  0  0  0  0
    7.4610    0.1519    0.0000 H   0  0  0  0  0  0  0  0  0  0  0  0
    9.9985   -1.3525    0.0000 H   0  0  0  0  0  0  0  0  0  0  0  0
   10.4050   -0.6669    0.0000 H   0  0  0  0  0  0  0  0  0  0  0  0
    7.4520   -0.6328    0.0000 H   0  0  0  0  0  0  0  0  0  0  0  0
    7.8425   -1.3276    0.0000 H   0  0  0  0  0  0  0  0  0  0  0  0
    6.0747    4.6694    0.0000 H   0  0  0  0  0  0  0  0  0  0  0  0
    5.6762    5.3596    0.0000 H   0  0  0  0  0  0  0  0  0  0  0  0
    7.1962    1.1570    0.0000 H   0  0  0  0  0  0  0  0  0  0  0  0
    7.1962    4.3970    0.0000 H   0  0  0  0  0  0  0  0  0  0  0  0
   10.3105   -2.4636    0.0000 H   0  0  0  0  0  0  0  0  0  0  0  0
   10.3979    3.6099    0.0000 H   0  0  0  0  0  0  0  0  0  0  0  0
    8.3534   -3.9411    0.0000 H   0  0  0  0  0  0  0  0  0  0  0  0
   11.1592   -3.9735    0.0000 H   0  0  0  0  0  0  0  0  0  0  0  0
    4.9081    2.8140    0.0000 H   0  0  0  0  0  0  0  0  0  0  0  0
    4.0611    2.5870    0.0000 H   0  0  0  0  0  0  0  0  0  0  0  0
    4.2881    1.7401    0.0000 H   0  0  0  0  0  0  0  0  0  0  0  0
    8.3347   -5.5610    0.0000 H   0  0  0  0  0  0  0  0  0  0  0  0
   11.1404   -5.5934    0.0000 H   0  0  0  0  0  0  0  0  0  0  0  0
   10.0435   -7.5808    0.0000 H   0  0  0  0  0  0  0  0  0  0  0  0
    9.9525   -8.2698    0.0000 H   0  0  0  0  0  0  0  0  0  0  0  0
   10.5653   -8.8970    0.0000 H   0  0  0  0  0  0  0  0  0  0  0  0
   11.1924   -8.2842    0.0000 H   0  0  0  0  0  0  0  0  0  0  0  0
   11.7595   -7.3276    0.0000 H   0  0  0  0  0  0  0  0  0  0  0  0
   11.9962   -6.4834    0.0000 H   0  0  0  0  0  0  0  0  0  0  0  0
   11.1520   -6.2466    0.0000 H   0  0  0  0  0  0  0  0  0  0  0  0
  1 22  1  0  0  0  0
  1 27  1  0  0  0  0
  2 25  2  0  0  0  0
  3 30  1  0  0  0  0
  3 35  1  0  0  0  0
  4 38  1  0  0  0  0
  4 39  1  0  0  0  0
  5 11  1  0  0  0  0
  5 12  1  0  0  0  0
  5 16  1  0  0  0  0
  6 18  1  0  0  0  0
  6 19  1  0  0  0  0
  6 23  1  0  0  0  0
  7 20  1  0  0  0  0
  7 21  1  0  0  0  0
  7 25  1  0  0  0  0
  8 23  2  0  0  0  0
  8 31  1  0  0  0  0
  9 25  1  0  0  0  0
  9 32  1  0  0  0  0
  9 68  1  0  0  0  0
 10 26  1  0  0  0  0
 10 31  2  0  0  0  0
 11 13  1  0  0  0  0
 11 42  1  0  0  0  0
 11 43  1  0  0  0  0
 12 14  1  0  0  0  0
 12 44  1  0  0  0  0
 12 45  1  0  0  0  0
 13 15  1  0  0  0  0
 13 46  1  0  0  0  0
 13 47  1  0  0  0  0
 14 15  1  0  0  0  0
 14 48  1  0  0  0  0
 14 49  1  0  0  0  0
 15 50  1  0  0  0  0
 15 51  1  0  0  0  0
 16 17  1  0  0  0  0
 16 52  1  0  0  0  0
 16 53  1  0  0  0  0
 17 22  1  0  0  0  0
 17 54  1  0  0  0  0
 17 55  1  0  0  0  0
 18 20  1  0  0  0  0
 18 56  1  0  0  0  0
 18 57  1  0  0  0  0
 19 21  1  0  0  0  0
 19 58  1  0  0  0  0
 19 59  1  0  0  0  0
 20 60  1  0  0  0  0
 20 61  1  0  0  0  0
 21 62  1  0  0  0  0
 21 63  1  0  0  0  0
 22 64  1  0  0  0  0
 22 65  1  0  0  0  0
 23 24  1  0  0  0  0
 24 26  1  0  0  0  0
 24 28  2  0  0  0  0
 26 29  2  0  0  0  0
 27 29  1  0  0  0  0
 27 30  2  0  0  0  0
 28 30  1  0  0  0  0
 28 66  1  0  0  0  0
 29 67  1  0  0  0  0
 31 69  1  0  0  0  0
 32 33  2  0  0  0  0
 32 34  1  0  0  0  0
 33 36  1  0  0  0  0
 33 70  1  0  0  0  0
 34 37  2  0  0  0  0
 34 71  1  0  0  0  0
 35 72  1  0  0  0  0
 35 73  1  0  0  0  0
 35 74  1  0  0  0  0
 36 38  2  0  0  0  0
 36 75  1  0  0  0  0
 37 38  1  0  0  0  0
 37 76  1  0  0  0  0
 39 40  1  0  0  0  0
 39 41  1  0  0  0  0
 39 77  1  0  0  0  0
 40 78  1  0  0  0  0
 40 79  1  0  0  0  0
 40 80  1  0  0  0  0
 41 81  1  0  0  0  0
 41 82  1  0  0  0  0
 41 83  1  0  0  0  0
M  END
> <PUBCHEM_COMPOUND_CID>
3038522

> <PUBCHEM_COMPOUND_CANONICALIZED>
1

> <PUBCHEM_CACTVS_COMPLEXITY>
783

> <PUBCHEM_CACTVS_HBOND_ACCEPTOR>
8

> <PUBCHEM_CACTVS_HBOND_DONOR>
1

> <PUBCHEM_CACTVS_ROTATABLE_BOND>
10

> <PUBCHEM_CACTVS_SUBSKEYS>
AAADcfB7uAAAAAAAAAAAAAAAAAAAAAAAAAA8eLECAAAAAACx9AAAHgAQAAAADBzhngY39vfIFACoAyZjdACCiCkxIqAJ2CA+7JiNbqLE+duWPCru1hvK6Cew0BMOIEABAgACQABAgAIEAASAAAAAAAAAAA==

> <PUBCHEM_IUPAC_OPENEYE_NAME>
N-(4-isopropoxyphenyl)-4-[6-methoxy-7-[3-(1-piperidyl)propoxy]quinazolin-4-yl]piperazine-1-carboxamide

> <PUBCHEM_IUPAC_CAS_NAME>
4-[6-methoxy-7-[3-(1-piperidinyl)propoxy]-4-quinazolinyl]-N-(4-propan-2-yloxyphenyl)-1-piperazinecarboxamide

> <PUBCHEM_IUPAC_NAME_MARKUP>
4-[6-methoxy-7-(3-piperidin-1-ylpropoxy)quinazolin-4-yl]-<I>N</I>-(4-propan-2-yloxyphenyl)piperazine-1-carboxamide

> <PUBCHEM_IUPAC_NAME>
4-[6-methoxy-7-(3-piperidin-1-ylpropoxy)quinazolin-4-yl]-N-(4-propan-2-yloxyphenyl)piperazine-1-carboxamide

> <PUBCHEM_IUPAC_SYSTEMATIC_NAME>
4-[6-methoxy-7-(3-piperidin-1-ylpropoxy)quinazolin-4-yl]-N-(4-propan-2-yloxyphenyl)piperazine-1-carboxamide

> <PUBCHEM_IUPAC_TRADITIONAL_NAME>
N-(4-isopropoxyphenyl)-4-[6-methoxy-7-(3-piperidinopropoxy)quinazolin-4-yl]piperazine-1-carboxamide

> <PUBCHEM_IUPAC_INCHI>
InChI=1S/C31H42N6O4/c1-23(2)41-25-10-8-24(9-11-25)34-31(38)37-17-15-36(16-18-37)30-26-20-28(39-3)29(21-27(26)32-22-33-30)40-19-7-14-35-12-5-4-6-13-35/h8-11,20-23H,4-7,12-19H2,1-3H3,(H,34,38)

> <PUBCHEM_IUPAC_INCHIKEY>
UXXQOJXBIDBUAC-UHFFFAOYSA-N

> <PUBCHEM_XLOGP3_AA>
4.6

> <PUBCHEM_EXACT_MASS>
562.32675384

> <PUBCHEM_MOLECULAR_FORMULA>
C31H42N6O4

> <PUBCHEM_MOLECULAR_WEIGHT>
562.7

> <PUBCHEM_OPENEYE_CAN_SMILES>
CC(C)OC1=CC=C(C=C1)NC(=O)N2CCN(CC2)C3=NC=NC4=CC(=C(C=C43)OC)OCCCN5CCCCC5

> <PUBCHEM_OPENEYE_ISO_SMILES>
CC(C)OC1=CC=C(C=C1)NC(=O)N2CCN(CC2)C3=NC=NC4=CC(=C(C=C43)OC)OCCCN5CCCCC5

> <PUBCHEM_CACTVS_TPSA>
92.3

> <PUBCHEM_MONOISOTOPIC_WEIGHT>
562.32675384

> <PUBCHEM_TOTAL_CHARGE>
0

> <PUBCHEM_HEAVY_ATOM_COUNT>
41

> <PUBCHEM_ATOM_DEF_STEREO_COUNT>
0

> <PUBCHEM_ATOM_UDEF_STEREO_COUNT>
0

> <PUBCHEM_BOND_DEF_STEREO_COUNT>
0

> <PUBCHEM_BOND_UDEF_STEREO_COUNT>
0

> <PUBCHEM_ISOTOPIC_ATOM_COUNT>
0

> <PUBCHEM_COMPONENT_COUNT>
1

> <PUBCHEM_CACTVS_TAUTO_COUNT>
-1

> <PUBCHEM_COORDINATE_TYPE>
1
5
255

> <PUBCHEM_BONDANNOTATIONS>
10  26  8
10  31  8
23  24  8
24  26  8
24  28  8
26  29  8
27  29  8
27  30  8
28  30  8
32  33  8
32  34  8
33  36  8
34  37  8
36  38  8
37  38  8
8  23  8
8  31  8

$$$$
11990828
  -OEChem-11282412102D

 68 70  0     0  0  0  0  0  0999 V2000
    8.3786   10.0765    0.0000 Cl  0  0  0  0  0  0  0  0  0  0  0  0
   11.8427   10.0765    0.0000 Cl  0  0  0  0  0  0  0  0  0  0  0  0
    4.8485    5.0524    0.0000 O   0  0  0  0  0  0  0  0  0  0  0  0
    4.8485    7.1007    0.0000 O   0  0  0  0  0  0  0  0  0  0  0  0
   11.8427    8.0765    0.0000 O   0  0  0  0  0  0  0  0  0  0  0  0
    6.2314   12.7072    0.0000 O   0  0  0  0  0  0  0  0  0  0  0  0
    3.1280    2.0457    0.0000 N   0  0  0  0  0  0  0  0  0  0  0  0
    1.3998    1.0391    0.0000 N   0  0  0  0  0  0  0  0  0  0  0  0
    8.3786    8.0765    0.0000 N   0  0  0  0  0  0  0  0  0  0  0  0
    8.3786    5.0765    0.0000 N   0  0  0  0  0  0  0  0  0  0  0  0
   10.9767    7.5765    0.0000 N   0  0  0  0  0  0  0  0  0  0  0  0
    2.2601    2.5424    0.0000 C   0  0  0  0  0  0  0  0  0  0  0  0
    3.1319    1.0458    0.0000 C   0  0  0  0  0  0  0  0  0  0  0  0
    1.3960    2.0391    0.0000 C   0  0  0  0  0  0  0  0  0  0  0  0
    2.2678    0.5424    0.0000 C   0  0  0  0  0  0  0  0  0  0  0  0
    3.9921    2.5491    0.0000 C   0  0  0  0  0  0  0  0  0  0  0  0
    3.9882    3.5491    0.0000 C   0  0  0  0  0  0  0  0  0  0  0  0
    0.5357    0.5357    0.0000 C   0  0  0  0  0  0  0  0  0  0  0  0
    4.8523    4.0524    0.0000 C   0  0  0  0  0  0  0  0  0  0  0  0
    5.7126    5.5557    0.0000 C   0  0  0  0  0  0  0  0  0  0  0  0
    5.7126    6.5974    0.0000 C   0  0  0  0  0  0  0  0  0  0  0  0
    6.6186    5.0419    0.0000 C   0  0  0  0  0  0  0  0  0  0  0  0
    7.5126    6.5765    0.0000 C   0  0  0  0  0  0  0  0  0  0  0  0
    7.5126    5.5765    0.0000 C   0  0  0  0  0  0  0  0  0  0  0  0
    6.6186    7.1112    0.0000 C   0  0  0  0  0  0  0  0  0  0  0  0
    8.3786    7.0765    0.0000 C   0  0  0  0  0  0  0  0  0  0  0  0
    9.2446    6.5765    0.0000 C   0  0  0  0  0  0  0  0  0  0  0  0
    9.2446    5.5765    0.0000 C   0  0  0  0  0  0  0  0  0  0  0  0
    9.2446    8.5765    0.0000 C   0  0  0  0  0  0  0  0  0  0  0  0
    4.8523    8.1007    0.0000 C   0  0  0  0  0  0  0  0  0  0  0  0
   10.1107    8.0765    0.0000 C   0  0  0  0  0  0  0  0  0  0  0  0
    9.2446    9.5765    0.0000 C   0  0  0  0  0  0  0  0  0  0  0  0
   10.1107    7.0765    0.0000 C   0  0  0  0  0  0  0  0  0  0  0  0
   10.9767    8.5765    0.0000 C   0  0  0  0  0  0  0  0  0  0  0  0
   10.1107   10.0765    0.0000 C   0  0  0  0  0  0  0  0  0  0  0  0
   10.9767    9.5765    0.0000 C   0  0  0  0  0  0  0  0  0  0  0  0
   11.8427    7.0765    0.0000 C   0  0  0  0  0  0  0  0  0  0  0  0
    2.6568    3.0189    0.0000 H   0  0  0  0  0  0  0  0  0  0  0  0
    1.8597    3.0158    0.0000 H   0  0  0  0  0  0  0  0  0  0  0  0
    3.3462    0.4640    0.0000 H   0  0  0  0  0  0  0  0  0  0  0  0
    3.7420    1.1558    0.0000 H   0  0  0  0  0  0  0  0  0  0  0  0
    1.1817    2.6208    0.0000 H   0  0  0  0  0  0  0  0  0  0  0  0
    0.7858    1.9290    0.0000 H   0  0  0  0  0  0  0  0  0  0  0  0
    1.8711    0.0659    0.0000 H   0  0  0  0  0  0  0  0  0  0  0  0
    2.6681    0.0690    0.0000 H   0  0  0  0  0  0  0  0  0  0  0  0
    4.2064    1.9673    0.0000 H   0  0  0  0  0  0  0  0  0  0  0  0
    4.6023    2.6591    0.0000 H   0  0  0  0  0  0  0  0  0  0  0  0
    3.7740    4.1308    0.0000 H   0  0  0  0  0  0  0  0  0  0  0  0
    3.3781    3.4390    0.0000 H   0  0  0  0  0  0  0  0  0  0  0  0
    0.2237    1.0715    0.0000 H   0  0  0  0  0  0  0  0  0  0  0  0
    0.0000    0.2237    0.0000 H   0  0  0  0  0  0  0  0  0  0  0  0
    0.8478    0.0000    0.0000 H   0  0  0  0  0  0  0  0  0  0  0  0
    5.0666    3.4706    0.0000 H   0  0  0  0  0  0  0  0  0  0  0  0
    5.4625    4.1624    0.0000 H   0  0  0  0  0  0  0  0  0  0  0  0
    6.6258    4.4219    0.0000 H   0  0  0  0  0  0  0  0  0  0  0  0
    6.6258    7.7312    0.0000 H   0  0  0  0  0  0  0  0  0  0  0  0
    7.8417    8.3865    0.0000 H   0  0  0  0  0  0  0  0  0  0  0  0
    9.7816    5.2665    0.0000 H   0  0  0  0  0  0  0  0  0  0  0  0
    5.4723    8.0983    0.0000 H   0  0  0  0  0  0  0  0  0  0  0  0
    4.8547    8.7207    0.0000 H   0  0  0  0  0  0  0  0  0  0  0  0
    4.2324    8.1031    0.0000 H   0  0  0  0  0  0  0  0  0  0  0  0
   10.1107    7.4565    0.0000 H   0  0  0  0  0  0  0  0  0  0  0  0
   10.1107   10.6965    0.0000 H   0  0  0  0  0  0  0  0  0  0  0  0
   11.2227    7.0765    0.0000 H   0  0  0  0  0  0  0  0  0  0  0  0
   11.8427    6.4565    0.0000 H   0  0  0  0  0  0  0  0  0  0  0  0
   12.4627    7.0765    0.0000 H   0  0  0  0  0  0  0  0  0  0  0  0
    6.7683   13.0172    0.0000 H   0  0  0  0  0  0  0  0  0  0  0  0
    5.6944   13.0172    0.0000 H   0  0  0  0  0  0  0  0  0  0  0  0
  1 32  1  0  0  0  0
  2 36  1  0  0  0  0
  3 19  1  0  0  0  0
  3 20  1  0  0  0  0
  4 21  1  0  0  0  0
  4 30  1  0  0  0  0
  5 34  1  0  0  0  0
  5 37  1  0  0  0  0
  6 67  1  0  0  0  0
  6 68  1  0  0  0  0
  7 12  1  0  0  0  0
  7 13  1  0  0  0  0
  7 16  1  0  0  0  0
  8 14  1  0  0  0  0
  8 15  1  0  0  0  0
  8 18  1  0  0  0  0
  9 26  1  0  0  0  0
  9 29  1  0  0  0  0
  9 57  1  0  0  0  0
 10 24  1  0  0  0  0
 10 28  2  0  0  0  0
 11 33  3  0  0  0  0
 12 14  1  0  0  0  0
 12 38  1  0  0  0  0
 12 39  1  0  0  0  0
 13 15  1  0  0  0  0
 13 40  1  0  0  0  0
 13 41  1  0  0  0  0
 14 42  1  0  0  0  0
 14 43  1  0  0  0  0
 15 44  1  0  0  0  0
 15 45  1  0  0  0  0
 16 17  1  0  0  0  0
 16 46  1  0  0  0  0
 16 47  1  0  0  0  0
 17 19  1  0  0  0  0
 17 48  1  0  0  0  0
 17 49  1  0  0  0  0
 18 50  1  0  0  0  0
 18 51  1  0  0  0  0
 18 52  1  0  0  0  0
 19 53  1  0  0  0  0
 19 54  1  0  0  0  0
 20 21  2  0  0  0  0
 20 22  1  0  0  0  0
 21 25  1  0  0  0  0
 22 24  2  0  0  0  0
 22 55  1  0  0  0  0
 23 24  1  0  0  0  0
 23 25  2  0  0  0  0
 23 26  1  0  0  0  0
 25 56  1  0  0  0  0
 26 27  2  0  0  0  0
 27 28  1  0  0  0  0
 27 33  1  0  0  0  0
 28 58  1  0  0  0  0
 29 31  2  0  0  0  0
 29 32  1  0  0  0  0
 30 59  1  0  0  0  0
 30 60  1  0  0  0  0
 30 61  1  0  0  0  0
 31 34  1  0  0  0  0
 31 62  1  0  0  0  0
 32 35  2  0  0  0  0
 34 36  2  0  0  0  0
 35 36  1  0  0  0  0
 35 63  1  0  0  0  0
 37 64  1  0  0  0  0
 37 65  1  0  0  0  0
 37 66  1  0  0  0  0
M  END
> <PUBCHEM_COMPOUND_CID>
11990828

> <PUBCHEM_COMPOUND_CANONICALIZED>
1

> <PUBCHEM_CACTVS_COMPLEXITY>
734

> <PUBCHEM_CACTVS_HBOND_ACCEPTOR>
9

> <PUBCHEM_CACTVS_HBOND_DONOR>
2

> <PUBCHEM_CACTVS_ROTATABLE_BOND>
9

> <PUBCHEM_CACTVS_SUBSKEYS>
AAADceB7uAAGAAAAAAAAAAAAAAAAAAAAAAA8eIEAAAAAAACx9AAAHgIQCAAADA7hniY+xvPIFACwBzRnRACiiCAxJ2AA2CA+75gN5uPF8tvWPCrm0BnK6A+w0PMOIGBBAgCCSBBAwIIEAQSQIAAAAAAAAA==

> <PUBCHEM_IUPAC_OPENEYE_NAME>
4-(2,4-dichloro-5-methoxy-anilino)-6-methoxy-7-[3-(4-methylpiperazin-1-yl)propoxy]quinoline-3-carbonitrile;hydrate

> <PUBCHEM_IUPAC_CAS_NAME>
4-(2,4-dichloro-5-methoxyanilino)-6-methoxy-7-[3-(4-methyl-1-piperazinyl)propoxy]-3-quinolinecarbonitrile;hydrate

> <PUBCHEM_IUPAC_NAME_MARKUP>
4-(2,4-dichloro-5-methoxyanilino)-6-methoxy-7-[3-(4-methylpiperazin-1-yl)propoxy]quinoline-3-carbonitrile;hydrate

> <PUBCHEM_IUPAC_NAME>
4-(2,4-dichloro-5-methoxyanilino)-6-methoxy-7-[3-(4-methylpiperazin-1-yl)propoxy]quinoline-3-carbonitrile;hydrate

> <PUBCHEM_IUPAC_SYSTEMATIC_NAME>
4-[[2,4-bis(chloranyl)-5-methoxy-phenyl]amino]-6-methoxy-7-[3-(4-methylpiperazin-1-yl)propoxy]quinoline-3-carbonitrile;hydrate

> <PUBCHEM_IUPAC_TRADITIONAL_NAME>
4-(2,4-dichloro-5-methoxy-anilino)-6-methoxy-7-[3-(4-methylpiperazino)propoxy]quinoline-3-carbonitrile;hydrate

> <PUBCHEM_IUPAC_INCHI>
InChI=1S/C26H29Cl2N5O3.H2O/c1-32-6-8-33(9-7-32)5-4-10-36-25-13-21-18(11-24(25)35-3)26(17(15-29)16-30-21)31-22-14-23(34-2)20(28)12-19(22)27;/h11-14,16H,4-10H2,1-3H3,(H,30,31);1H2

> <PUBCHEM_IUPAC_INCHIKEY>
BXPOSPOKHGNMEP-UHFFFAOYSA-N

> <PUBCHEM_EXACT_MASS>
547.1753099

> <PUBCHEM_MOLECULAR_FORMULA>
C26H31Cl2N5O4

> <PUBCHEM_MOLECULAR_WEIGHT>
548.5

> <PUBCHEM_OPENEYE_CAN_SMILES>
CN1CCN(CC1)CCCOC2=C(C=C3C(=C2)N=CC(=C3NC4=CC(=C(C=C4Cl)Cl)OC)C#N)OC.O

> <PUBCHEM_OPENEYE_ISO_SMILES>
CN1CCN(CC1)CCCOC2=C(C=C3C(=C2)N=CC(=C3NC4=CC(=C(C=C4Cl)Cl)OC)C#N)OC.O

> <PUBCHEM_CACTVS_TPSA>
83.9

> <PUBCHEM_MONOISOTOPIC_WEIGHT>
547.1753099

> <PUBCHEM_TOTAL_CHARGE>
0

> <PUBCHEM_HEAVY_ATOM_COUNT>
37

> <PUBCHEM_ATOM_DEF_STEREO_COUNT>
0

> <PUBCHEM_ATOM_UDEF_STEREO_COUNT>
0

> <PUBCHEM_BOND_DEF_STEREO_COUNT>
0

> <PUBCHEM_BOND_UDEF_STEREO_COUNT>
0

> <PUBCHEM_ISOTOPIC_ATOM_COUNT>
0

> <PUBCHEM_COMPONENT_COUNT>
2

> <PUBCHEM_CACTVS_TAUTO_COUNT>
-1

> <PUBCHEM_COORDINATE_TYPE>
1
5
255

> <PUBCHEM_BONDANNOTATIONS>
10  24  8
10  28  8
20  21  8
20  22  8
21  25  8
22  24  8
23  24  8
23  25  8
23  26  8
26  27  8
27  28  8
29  31  8
29  32  8
31  34  8
32  35  8
34  36  8
35  36  8

$$$$
25117347
  -OEChem-11282412102D

 58 59  0     1  0  0  0  0  0999 V2000
    5.6661    0.0000    0.0000 Cl  0  0  0  0  0  0  0  0  0  0  0  0
    3.1350    4.1200    0.0000 S   0  0  0  0  0  0  0  0  0  0  0  0
    2.2690   10.6200    0.0000 F   0  0  0  0  0  0  0  0  0  0  0  0
    3.6350   10.9860    0.0000 F   0  0  0  0  0  0  0  0  0  0  0  0
    2.6350    9.2540    0.0000 F   0  0  0  0  0  0  0  0  0  0  0  0
    2.1350    4.1200    0.0000 O   0  0  0  0  0  0  0  0  0  0  0  0
    4.1350    4.1200    0.0000 O   0  0  0  0  0  0  0  0  0  0  0  0
   10.0632   11.1200    0.0000 O   0  0  0  0  0  0  0  0  0  0  0  0
    3.1350    5.1200    0.0000 N   0  0  3  0  0  0  0  0  0  0  0  0
    3.1350    8.1200    0.0000 N   0  0  0  0  0  0  0  0  0  0  0  0
    1.4030    5.1200    0.0000 N   0  0  0  0  0  0  0  0  0  0  0  0
    1.4030    7.1200    0.0000 N   0  0  0  0  0  0  0  0  0  0  0  0
    4.8671    8.1200    0.0000 N   0  0  0  0  0  0  0  0  0  0  0  0
    6.5991    8.1200    0.0000 N   0  0  0  0  0  0  0  0  0  0  0  0
    5.7331    9.6200    0.0000 N   0  0  0  0  0  0  0  0  0  0  0  0
   10.9292    9.6200    0.0000 N   0  0  0  0  0  0  0  0  0  0  0  0
    2.2690    5.6200    0.0000 C   0  0  0  0  0  0  0  0  0  0  0  0
    3.1350    7.1200    0.0000 C   0  0  0  0  0  0  0  0  0  0  0  0
    2.2690    6.6200    0.0000 C   0  0  0  0  0  0  0  0  0  0  0  0
    4.0010    8.6200    0.0000 C   0  0  0  0  0  0  0  0  0  0  0  0
    4.0010    5.6200    0.0000 C   0  0  0  0  0  0  0  0  0  0  0  0
    4.0010    9.6200    0.0000 C   0  0  0  0  0  0  0  0  0  0  0  0
    3.1350    3.1200    0.0000 C   0  0  0  0  0  0  0  0  0  0  0  0
    5.7331    8.6200    0.0000 C   0  0  0  0  0  0  0  0  0  0  0  0
    4.8671   10.1200    0.0000 C   0  0  0  0  0  0  0  0  0  0  0  0
    3.1350   10.1200    0.0000 C   0  0  0  0  0  0  0  0  0  0  0  0
    0.5369    5.6200    0.0000 C   0  0  0  0  0  0  0  0  0  0  0  0
    0.5369    6.6200    0.0000 C   0  0  0  0  0  0  0  0  0  0  0  0
    7.4651    8.6200    0.0000 C   0  0  0  0  0  0  0  0  0  0  0  0
    8.3312    8.1200    0.0000 C   0  0  0  0  0  0  0  0  0  0  0  0
    7.4651    9.6200    0.0000 C   0  0  0  0  0  0  0  0  0  0  0  0
    9.1972    9.6200    0.0000 C   0  0  0  0  0  0  0  0  0  0  0  0
    9.1972    8.6200    0.0000 C   0  0  0  0  0  0  0  0  0  0  0  0
    8.3312   10.1200    0.0000 C   0  0  0  0  0  0  0  0  0  0  0  0
   10.0632   10.1200    0.0000 C   0  0  0  0  0  0  0  0  0  0  0  0
   11.7953   10.1200    0.0000 C   0  0  0  0  0  0  0  0  0  0  0  0
    3.3471    6.5374    0.0000 H   0  0  0  0  0  0  0  0  0  0  0  0
    3.7456    7.2277    0.0000 H   0  0  0  0  0  0  0  0  0  0  0  0
    2.5981    8.4300    0.0000 H   0  0  0  0  0  0  0  0  0  0  0  0
    4.3110    5.0831    0.0000 H   0  0  0  0  0  0  0  0  0  0  0  0
    4.5380    5.9300    0.0000 H   0  0  0  0  0  0  0  0  0  0  0  0
    3.6910    6.1569    0.0000 H   0  0  0  0  0  0  0  0  0  0  0  0
    2.5150    3.1200    0.0000 H   0  0  0  0  0  0  0  0  0  0  0  0
    3.1350    2.5000    0.0000 H   0  0  0  0  0  0  0  0  0  0  0  0
    3.7550    3.1200    0.0000 H   0  0  0  0  0  0  0  0  0  0  0  0
    4.8671   10.7400    0.0000 H   0  0  0  0  0  0  0  0  0  0  0  0
    0.0000    5.3100    0.0000 H   0  0  0  0  0  0  0  0  0  0  0  0
    0.0000    6.9300    0.0000 H   0  0  0  0  0  0  0  0  0  0  0  0
    6.5991    7.5000    0.0000 H   0  0  0  0  0  0  0  0  0  0  0  0
    8.3312    7.5000    0.0000 H   0  0  0  0  0  0  0  0  0  0  0  0
    6.9282    9.9300    0.0000 H   0  0  0  0  0  0  0  0  0  0  0  0
    9.7341    8.3100    0.0000 H   0  0  0  0  0  0  0  0  0  0  0  0
    8.3312   10.7400    0.0000 H   0  0  0  0  0  0  0  0  0  0  0  0
   10.9292    9.0000    0.0000 H   0  0  0  0  0  0  0  0  0  0  0  0
   12.1053    9.5831    0.0000 H   0  0  0  0  0  0  0  0  0  0  0  0
   12.3322   10.4300    0.0000 H   0  0  0  0  0  0  0  0  0  0  0  0
   11.4853   10.6569    0.0000 H   0  0  0  0  0  0  0  0  0  0  0  0
    6.6661    0.0000    0.0000 H   0  0  0  0  0  0  0  0  0  0  0  0
  1 58  1  0  0  0  0
  2  6  2  0  0  0  0
  2  7  2  0  0  0  0
  2  9  1  0  0  0  0
  2 23  1  0  0  0  0
  3 26  1  0  0  0  0
  4 26  1  0  0  0  0
  5 26  1  0  0  0  0
  8 35  2  0  0  0  0
  9 17  1  0  0  0  0
  9 21  1  0  0  0  0
 10 18  1  0  0  0  0
 10 20  1  0  0  0  0
 10 39  1  0  0  0  0
 11 17  2  0  0  0  0
 11 27  1  0  0  0  0
 12 19  2  0  0  0  0
 12 28  1  0  0  0  0
 13 20  2  0  0  0  0
 13 24  1  0  0  0  0
 14 24  1  0  0  0  0
 14 29  1  0  0  0  0
 14 49  1  0  0  0  0
 15 24  2  0  0  0  0
 15 25  1  0  0  0  0
 16 35  1  0  0  0  0
 16 36  1  0  0  0  0
 16 54  1  0  0  0  0
 17 19  1  0  0  0  0
 18 19  1  0  0  0  0
 18 37  1  0  0  0  0
 18 38  1  0  0  0  0
 20 22  1  0  0  0  0
 21 40  1  0  0  0  0
 21 41  1  0  0  0  0
 21 42  1  0  0  0  0
 22 25  2  0  0  0  0
 22 26  1  0  0  0  0
 23 43  1  0  0  0  0
 23 44  1  0  0  0  0
 23 45  1  0  0  0  0
 25 46  1  0  0  0  0
 27 28  2  0  0  0  0
 27 47  1  0  0  0  0
 28 48  1  0  0  0  0
 29 30  2  0  0  0  0
 29 31  1  0  0  0  0
 30 33  1  0  0  0  0
 30 50  1  0  0  0  0
 31 34  2  0  0  0  0
 31 51  1  0  0  0  0
 32 33  2  0  0  0  0
 32 34  1  0  0  0  0
 32 35  1  0  0  0  0
 33 52  1  0  0  0  0
 34 53  1  0  0  0  0
 36 55  1  0  0  0  0
 36 56  1  0  0  0  0
 36 57  1  0  0  0  0
M  END
> <PUBCHEM_COMPOUND_CID>
25117347

> <PUBCHEM_COMPOUND_CANONICALIZED>
1

> <PUBCHEM_CACTVS_COMPLEXITY>
804

> <PUBCHEM_CACTVS_HBOND_ACCEPTOR>
13

> <PUBCHEM_CACTVS_HBOND_DONOR>
4

> <PUBCHEM_CACTVS_ROTATABLE_BOND>
8

> <PUBCHEM_CACTVS_SUBSKEYS>
AAADceB78YBEAAAAAAAAAAAAAAAAAAAAAAA8WIAAAAAAAAAB8AAAHwQQQAAADAjBnhS/8JbIEAKoAzd3dHCCgC01EqAJ2KE4dNiIaPLA3dGUJQhokgLIyacYiQCeCAAAAAAAAAAQAAAAAAAAAAAAAAAAAA==

> <PUBCHEM_IUPAC_OPENEYE_NAME>
N-methyl-4-[[4-[[3-[methyl(methylsulfonyl)amino]pyrazin-2-yl]methylamino]-5-(trifluoromethyl)pyrimidin-2-yl]amino]benzamide;hydrochloride

> <PUBCHEM_IUPAC_CAS_NAME>
N-methyl-4-[[4-[[3-[methyl(methylsulfonyl)amino]-2-pyrazinyl]methylamino]-5-(trifluoromethyl)-2-pyrimidinyl]amino]benzamide;hydrochloride

> <PUBCHEM_IUPAC_NAME_MARKUP>
<I>N</I>-methyl-4-[[4-[[3-[methyl(methylsulfonyl)amino]pyrazin-2-yl]methylamino]-5-(trifluoromethyl)pyrimidin-2-yl]amino]benzamide;hydrochloride

> <PUBCHEM_IUPAC_NAME>
N-methyl-4-[[4-[[3-[methyl(methylsulfonyl)amino]pyrazin-2-yl]methylamino]-5-(trifluoromethyl)pyrimidin-2-yl]amino]benzamide;hydrochloride

> <PUBCHEM_IUPAC_SYSTEMATIC_NAME>
N-methyl-4-[[4-[[3-[methyl(methylsulfonyl)amino]pyrazin-2-yl]methylamino]-5-(trifluoromethyl)pyrimidin-2-yl]amino]benzamide;hydrochloride

> <PUBCHEM_IUPAC_TRADITIONAL_NAME>
4-[[4-[[3-[mesyl(methyl)amino]pyrazin-2-yl]methylamino]-5-(trifluoromethyl)pyrimidin-2-yl]amino]-N-methyl-benzamide;hydrochloride

> <PUBCHEM_IUPAC_INCHI>
InChI=1S/C20H21F3N8O3S.ClH/c1-24-18(32)12-4-6-13(7-5-12)29-19-28-10-14(20(21,22)23)16(30-19)27-11-15-17(26-9-8-25-15)31(2)35(3,33)34;/h4-10H,11H2,1-3H3,(H,24,32)(H2,27,28,29,30);1H

> <PUBCHEM_IUPAC_INCHIKEY>
RCHQNUQAHJNRBY-UHFFFAOYSA-N

> <PUBCHEM_EXACT_MASS>
546.1176199

> <PUBCHEM_MOLECULAR_FORMULA>
C20H22ClF3N8O3S

> <PUBCHEM_MOLECULAR_WEIGHT>
547.0

> <PUBCHEM_OPENEYE_CAN_SMILES>
CNC(=O)C1=CC=C(C=C1)NC2=NC=C(C(=N2)NCC3=NC=CN=C3N(C)S(=O)(=O)C)C(F)(F)F.Cl

> <PUBCHEM_OPENEYE_ISO_SMILES>
CNC(=O)C1=CC=C(C=C1)NC2=NC=C(C(=N2)NCC3=NC=CN=C3N(C)S(=O)(=O)C)C(F)(F)F.Cl

> <PUBCHEM_CACTVS_TPSA>
151

> <PUBCHEM_MONOISOTOPIC_WEIGHT>
546.1176199

> <PUBCHEM_TOTAL_CHARGE>
0

> <PUBCHEM_HEAVY_ATOM_COUNT>
36

> <PUBCHEM_ATOM_DEF_STEREO_COUNT>
0

> <PUBCHEM_ATOM_UDEF_STEREO_COUNT>
0

> <PUBCHEM_BOND_DEF_STEREO_COUNT>
0

> <PUBCHEM_BOND_UDEF_STEREO_COUNT>
0

> <PUBCHEM_ISOTOPIC_ATOM_COUNT>
0

> <PUBCHEM_COMPONENT_COUNT>
2

> <PUBCHEM_CACTVS_TAUTO_COUNT>
-1

> <PUBCHEM_COORDINATE_TYPE>
1
5
255

> <PUBCHEM_BONDANNOTATIONS>
11  17  8
11  27  8
12  19  8
12  28  8
13  20  8
13  24  8
15  24  8
15  25  8
17  19  8
20  22  8
22  25  8
27  28  8
29  30  8
29  31  8
30  33  8
31  34  8
32  33  8
32  34  8

$$$$
57409360
  -OEChem-11282412102D

 88 92  0     0  0  0  0  0  0999 V2000
   12.5325    9.3509    0.0000 S   0  0  0  0  0  0  0  0  0  0  0  0
    6.8485    7.2692    0.0000 F   0  0  0  0  0  0  0  0  0  0  0  0
    3.6680    5.5708    0.0000 O   0  0  0  0  0  0  0  0  0  0  0  0
    4.5305    9.8435    0.0000 O   0  0  0  0  0  0  0  0  0  0  0  0
   12.5325   10.3509    0.0000 O   0  0  0  0  0  0  0  0  0  0  0  0
   13.5325    9.3509    0.0000 O   0  0  0  0  0  0  0  0  0  0  0  0
   11.5325    9.3509    0.0000 O   0  0  0  0  0  0  0  0  0  0  0  0
    4.6499   13.4471    0.0000 O   0  0  0  0  0  0  0  0  0  0  0  0
    4.1883    2.6200    0.0000 N   0  0  0  0  0  0  0  0  0  0  0  0
    3.2748    2.2133    0.0000 N   0  0  0  0  0  0  0  0  0  0  0  0
    4.8269    4.2836    0.0000 N   0  0  0  0  0  0  0  0  0  0  0  0
    5.3622    5.9309    0.0000 N   0  0  0  0  0  0  0  0  0  0  0  0
    7.6803    0.5853    0.0000 N   0  0  0  0  0  0  0  0  0  0  0  0
    6.7600   11.8509    0.0000 N   0  0  0  0  0  0  0  0  0  0  0  0
    6.3441   13.8072    0.0000 N   0  0  0  0  0  0  0  0  0  0  0  0
    1.6111    2.8519    0.0000 C   0  0  0  0  0  0  0  0  0  0  0  0
    2.6056    2.9564    0.0000 C   0  0  0  0  0  0  0  0  0  0  0  0
    0.6166    2.7474    0.0000 C   0  0  0  0  0  0  0  0  0  0  0  0
    1.5066    3.8464    0.0000 C   0  0  0  0  0  0  0  0  0  0  0  0
    1.7156    1.8574    0.0000 C   0  0  0  0  0  0  0  0  0  0  0  0
    3.1056    3.8224    0.0000 C   0  0  0  0  0  0  0  0  0  0  0  0
    4.0838    3.6145    0.0000 C   0  0  0  0  0  0  0  0  0  0  0  0
    5.0544    2.1200    0.0000 C   0  0  0  0  0  0  0  0  0  0  0  0
    5.9204    2.6200    0.0000 C   0  0  0  0  0  0  0  0  0  0  0  0
    5.0544    1.1200    0.0000 C   0  0  0  0  0  0  0  0  0  0  0  0
    6.7864    2.1200    0.0000 C   0  0  0  0  0  0  0  0  0  0  0  0
    6.7864    1.1200    0.0000 C   0  0  0  0  0  0  0  0  0  0  0  0
    5.9204    0.6200    0.0000 C   0  0  0  0  0  0  0  0  0  0  0  0
    4.6190    5.2618    0.0000 C   0  0  0  0  0  0  0  0  0  0  0  0
    7.6803    2.6547    0.0000 C   0  0  0  0  0  0  0  0  0  0  0  0
    8.5864    2.1408    0.0000 C   0  0  0  0  0  0  0  0  0  0  0  0
    8.5864    1.0992    0.0000 C   0  0  0  0  0  0  0  0  0  0  0  0
    5.1543    6.9091    0.0000 C   0  0  0  0  0  0  0  0  0  0  0  0
    5.8974    7.5782    0.0000 C   0  0  0  0  0  0  0  0  0  0  0  0
    4.2032    7.2181    0.0000 C   0  0  0  0  0  0  0  0  0  0  0  0
    5.6895    8.5564    0.0000 C   0  0  0  0  0  0  0  0  0  0  0  0
    3.9953    8.1962    0.0000 C   0  0  0  0  0  0  0  0  0  0  0  0
    4.7384    8.8654    0.0000 C   0  0  0  0  0  0  0  0  0  0  0  0
    5.2737   10.5127    0.0000 C   0  0  0  0  0  0  0  0  0  0  0  0
   12.5325    8.3509    0.0000 C   0  0  0  0  0  0  0  0  0  0  0  0
   12.5325    6.3509    0.0000 C   0  0  0  0  0  0  0  0  0  0  0  0
    5.0658   11.4908    0.0000 C   0  0  0  0  0  0  0  0  0  0  0  0
   11.6665    7.8509    0.0000 C   0  0  0  0  0  0  0  0  0  0  0  0
   13.3986    7.8509    0.0000 C   0  0  0  0  0  0  0  0  0  0  0  0
   11.6665    6.8509    0.0000 C   0  0  0  0  0  0  0  0  0  0  0  0
   13.3986    6.8509    0.0000 C   0  0  0  0  0  0  0  0  0  0  0  0
    6.2247   10.2036    0.0000 C   0  0  0  0  0  0  0  0  0  0  0  0
    5.8089   12.1599    0.0000 C   0  0  0  0  0  0  0  0  0  0  0  0
   12.5325    5.3509    0.0000 C   0  0  0  0  0  0  0  0  0  0  0  0
    6.9679   10.8728    0.0000 C   0  0  0  0  0  0  0  0  0  0  0  0
    5.6010   13.1381    0.0000 C   0  0  0  0  0  0  0  0  0  0  0  0
    6.1362   14.7854    0.0000 C   0  0  0  0  0  0  0  0  0  0  0  0
    0.5518    3.3640    0.0000 H   0  0  0  0  0  0  0  0  0  0  0  0
    0.0000    2.6825    0.0000 H   0  0  0  0  0  0  0  0  0  0  0  0
    0.6814    2.1308    0.0000 H   0  0  0  0  0  0  0  0  0  0  0  0
    2.1232    3.9112    0.0000 H   0  0  0  0  0  0  0  0  0  0  0  0
    1.4418    4.4630    0.0000 H   0  0  0  0  0  0  0  0  0  0  0  0
    0.8900    3.7816    0.0000 H   0  0  0  0  0  0  0  0  0  0  0  0
    1.0990    1.7926    0.0000 H   0  0  0  0  0  0  0  0  0  0  0  0
    1.7805    1.2408    0.0000 H   0  0  0  0  0  0  0  0  0  0  0  0
    2.3323    1.9222    0.0000 H   0  0  0  0  0  0  0  0  0  0  0  0
    2.8535    4.3888    0.0000 H   0  0  0  0  0  0  0  0  0  0  0  0
    5.4166    4.0921    0.0000 H   0  0  0  0  0  0  0  0  0  0  0  0
    5.9204    3.2400    0.0000 H   0  0  0  0  0  0  0  0  0  0  0  0
    4.5174    0.8100    0.0000 H   0  0  0  0  0  0  0  0  0  0  0  0
    5.9204    0.0000    0.0000 H   0  0  0  0  0  0  0  0  0  0  0  0
    7.6732    3.2746    0.0000 H   0  0  0  0  0  0  0  0  0  0  0  0
    5.9518    5.7393    0.0000 H   0  0  0  0  0  0  0  0  0  0  0  0
    9.1221    2.4529    0.0000 H   0  0  0  0  0  0  0  0  0  0  0  0
    9.1221    0.7871    0.0000 H   0  0  0  0  0  0  0  0  0  0  0  0
    3.7425    6.8032    0.0000 H   0  0  0  0  0  0  0  0  0  0  0  0
    6.1502    8.9712    0.0000 H   0  0  0  0  0  0  0  0  0  0  0  0
    3.4056    8.3878    0.0000 H   0  0  0  0  0  0  0  0  0  0  0  0
    4.4761   11.6824    0.0000 H   0  0  0  0  0  0  0  0  0  0  0  0
   11.1296    8.1609    0.0000 H   0  0  0  0  0  0  0  0  0  0  0  0
   13.9355    8.1609    0.0000 H   0  0  0  0  0  0  0  0  0  0  0  0
   11.1296    6.5409    0.0000 H   0  0  0  0  0  0  0  0  0  0  0  0
   13.9355    6.5409    0.0000 H   0  0  0  0  0  0  0  0  0  0  0  0
    6.3536    9.5972    0.0000 H   0  0  0  0  0  0  0  0  0  0  0  0
   11.9125    5.3509    0.0000 H   0  0  0  0  0  0  0  0  0  0  0  0
   12.5325    4.7309    0.0000 H   0  0  0  0  0  0  0  0  0  0  0  0
   13.1525    5.3509    0.0000 H   0  0  0  0  0  0  0  0  0  0  0  0
    7.5575   10.6812    0.0000 H   0  0  0  0  0  0  0  0  0  0  0  0
   13.0695   10.6609    0.0000 H   0  0  0  0  0  0  0  0  0  0  0  0
    6.9338   13.6156    0.0000 H   0  0  0  0  0  0  0  0  0  0  0  0
    6.7427   14.9143    0.0000 H   0  0  0  0  0  0  0  0  0  0  0  0
    6.0073   15.3918    0.0000 H   0  0  0  0  0  0  0  0  0  0  0  0
    5.5298   14.6565    0.0000 H   0  0  0  0  0  0  0  0  0  0  0  0
  1  5  1  0  0  0  0
  1  6  2  0  0  0  0
  1  7  2  0  0  0  0
  1 40  1  0  0  0  0
  2 34  1  0  0  0  0
  3 29  2  0  0  0  0
  4 38  1  0  0  0  0
  4 39  1  0  0  0  0
  5 84  1  0  0  0  0
  8 51  2  0  0  0  0
  9 10  1  0  0  0  0
  9 22  1  0  0  0  0
  9 23  1  0  0  0  0
 10 17  2  0  0  0  0
 11 22  1  0  0  0  0
 11 29  1  0  0  0  0
 11 63  1  0  0  0  0
 12 29  1  0  0  0  0
 12 33  1  0  0  0  0
 12 68  1  0  0  0  0
 13 27  1  0  0  0  0
 13 32  2  0  0  0  0
 14 48  2  0  0  0  0
 14 50  1  0  0  0  0
 15 51  1  0  0  0  0
 15 52  1  0  0  0  0
 15 85  1  0  0  0  0
 16 17  1  0  0  0  0
 16 18  1  0  0  0  0
 16 19  1  0  0  0  0
 16 20  1  0  0  0  0
 17 21  1  0  0  0  0
 18 53  1  0  0  0  0
 18 54  1  0  0  0  0
 18 55  1  0  0  0  0
 19 56  1  0  0  0  0
 19 57  1  0  0  0  0
 19 58  1  0  0  0  0
 20 59  1  0  0  0  0
 20 60  1  0  0  0  0
 20 61  1  0  0  0  0
 21 22  2  0  0  0  0
 21 62  1  0  0  0  0
 23 24  2  0  0  0  0
 23 25  1  0  0  0  0
 24 26  1  0  0  0  0
 24 64  1  0  0  0  0
 25 28  2  0  0  0  0
 25 65  1  0  0  0  0
 26 27  2  0  0  0  0
 26 30  1  0  0  0  0
 27 28  1  0  0  0  0
 28 66  1  0  0  0  0
 30 31  2  0  0  0  0
 30 67  1  0  0  0  0
 31 32  1  0  0  0  0
 31 69  1  0  0  0  0
 32 70  1  0  0  0  0
 33 34  2  0  0  0  0
 33 35  1  0  0  0  0
 34 36  1  0  0  0  0
 35 37  2  0  0  0  0
 35 71  1  0  0  0  0
 36 38  2  0  0  0  0
 36 72  1  0  0  0  0
 37 38  1  0  0  0  0
 37 73  1  0  0  0  0
 39 42  2  0  0  0  0
 39 47  1  0  0  0  0
 40 43  2  0  0  0  0
 40 44  1  0  0  0  0
 41 45  2  0  0  0  0
 41 46  1  0  0  0  0
 41 49  1  0  0  0  0
 42 48  1  0  0  0  0
 42 74  1  0  0  0  0
 43 45  1  0  0  0  0
 43 75  1  0  0  0  0
 44 46  2  0  0  0  0
 44 76  1  0  0  0  0
 45 77  1  0  0  0  0
 46 78  1  0  0  0  0
 47 50  2  0  0  0  0
 47 79  1  0  0  0  0
 48 51  1  0  0  0  0
 49 80  1  0  0  0  0
 49 81  1  0  0  0  0
 49 82  1  0  0  0  0
 50 83  1  0  0  0  0
 52 86  1  0  0  0  0
 52 87  1  0  0  0  0
 52 88  1  0  0  0  0
M  END
> <PUBCHEM_COMPOUND_CID>
57409360

> <PUBCHEM_COMPOUND_CANONICALIZED>
1

> <PUBCHEM_CACTVS_COMPLEXITY>
1110

> <PUBCHEM_CACTVS_HBOND_ACCEPTOR>
10

> <PUBCHEM_CACTVS_HBOND_DONOR>
4

> <PUBCHEM_CACTVS_ROTATABLE_BOND>
8

> <PUBCHEM_CACTVS_SUBSKEYS>
AAADcfB/uQBAAAAAAAAAAAAAAAAAAWAAAAA8eMECAAAAAACx/gAAHwQYCAAADgzB3gw/9/LIFIKqAzd3dHDSjGM3IiAd2Lm+bNiMZvLE9fuWvSj+3xvI6ae6yIAPEECAQAACAAAggQCAAAQAAAAAAAAAAA==

> <PUBCHEM_IUPAC_OPENEYE_NAME>
4-[4-[[5-tert-butyl-2-(6-quinolyl)pyrazol-3-yl]carbamoylamino]-3-fluoro-phenoxy]-N-methyl-pyridine-2-carboxamide;4-methylbenzenesulfonic acid

> <PUBCHEM_IUPAC_CAS_NAME>
4-[4-[[[[5-tert-butyl-2-(6-quinolinyl)-3-pyrazolyl]amino]-oxomethyl]amino]-3-fluorophenoxy]-N-methyl-2-pyridinecarboxamide;4-methylbenzenesulfonic acid

> <PUBCHEM_IUPAC_NAME_MARKUP>
4-[4-[(5-<I>tert</I>-butyl-2-quinolin-6-ylpyrazol-3-yl)carbamoylamino]-3-fluorophenoxy]-<I>N</I>-methylpyridine-2-carboxamide;4-methylbenzenesulfonic acid

> <PUBCHEM_IUPAC_NAME>
4-[4-[(5-tert-butyl-2-quinolin-6-ylpyrazol-3-yl)carbamoylamino]-3-fluorophenoxy]-N-methylpyridine-2-carboxamide;4-methylbenzenesulfonic acid

> <PUBCHEM_IUPAC_SYSTEMATIC_NAME>
4-[4-[(5-tert-butyl-2-quinolin-6-yl-pyrazol-3-yl)carbamoylamino]-3-fluoranyl-phenoxy]-N-methyl-pyridine-2-carboxamide;4-methylbenzenesulfonic acid

> <PUBCHEM_IUPAC_TRADITIONAL_NAME>
4-[4-[[5-tert-butyl-2-(6-quinolyl)pyrazol-3-yl]carbamoylamino]-3-fluoro-phenoxy]-N-methyl-picolinamide;tosylic acid

> <PUBCHEM_IUPAC_INCHI>
InChI=1S/C30H28FN7O3.C7H8O3S/c1-30(2,3)26-17-27(38(37-26)19-7-9-23-18(14-19)6-5-12-33-23)36-29(40)35-24-10-8-20(15-22(24)31)41-21-11-13-34-25(16-21)28(39)32-4;1-6-2-4-7(5-3-6)11(8,9)10/h5-17H,1-4H3,(H,32,39)(H2,35,36,40);2-5H,1H3,(H,8,9,10)

> <PUBCHEM_IUPAC_INCHIKEY>
ARPBZBAWXAVDCE-UHFFFAOYSA-N

> <PUBCHEM_EXACT_MASS>
725.24318123

> <PUBCHEM_MOLECULAR_FORMULA>
C37H36FN7O6S

> <PUBCHEM_MOLECULAR_WEIGHT>
725.8

> <PUBCHEM_OPENEYE_CAN_SMILES>
CC1=CC=C(C=C1)S(=O)(=O)O.CC(C)(C)C1=NN(C(=C1)NC(=O)NC2=C(C=C(C=C2)OC3=CC(=NC=C3)C(=O)NC)F)C4=CC5=C(C=C4)N=CC=C5

> <PUBCHEM_OPENEYE_ISO_SMILES>
CC1=CC=C(C=C1)S(=O)(=O)O.CC(C)(C)C1=NN(C(=C1)NC(=O)NC2=C(C=C(C=C2)OC3=CC(=NC=C3)C(=O)NC)F)C4=CC5=C(C=C4)N=CC=C5

> <PUBCHEM_CACTVS_TPSA>
186

> <PUBCHEM_MONOISOTOPIC_WEIGHT>
725.24318123

> <PUBCHEM_TOTAL_CHARGE>
0

> <PUBCHEM_HEAVY_ATOM_COUNT>
52

> <PUBCHEM_ATOM_DEF_STEREO_COUNT>
0

> <PUBCHEM_ATOM_UDEF_STEREO_COUNT>
0

> <PUBCHEM_BOND_DEF_STEREO_COUNT>
0

> <PUBCHEM_BOND_UDEF_STEREO_COUNT>
0

> <PUBCHEM_ISOTOPIC_ATOM_COUNT>
0

> <PUBCHEM_COMPONENT_COUNT>
2

> <PUBCHEM_CACTVS_TAUTO_COUNT>
-1

> <PUBCHEM_COORDINATE_TYPE>
1
5
255

> <PUBCHEM_BONDANNOTATIONS>
10  17  8
13  27  8
13  32  8
14  48  8
14  50  8
17  21  8
21  22  8
23  24  8
23  25  8
24  26  8
25  28  8
26  27  8
26  30  8
27  28  8
30  31  8
31  32  8
33  34  8
33  35  8
34  36  8
35  37  8
36  38  8
37  38  8
39  42  8
39  47  8
40  43  8
40  44  8
41  45  8
41  46  8
42  48  8
43  45  8
44  46  8
47  50  8
9  10  8
9  22  8

$$$$
71722042
  -OEChem-11282412102D

103107  0     1  0  0  0  0  0999 V2000
   11.0808    1.1700    0.0000 Cl  0  0  0  0  0  0  0  0  0  0  0  0
    1.6111    1.0723    0.0000 S   0  0  3  0  0  0  0  0  0  0  0  0
    8.5799   14.4708    0.0000 S   0  0  0  0  0  0  0  0  0  0  0  0
    8.5799   22.4072    0.0000 S   0  0  0  0  0  0  0  0  0  0  0  0
   17.1599    2.5998    0.0000 F   0  0  0  0  0  0  0  0  0  0  0  0
    5.7985    4.2299    0.0000 O   0  0  0  0  0  0  0  0  0  0  0  0
   12.8243    2.1499    0.0000 O   0  0  0  0  0  0  0  0  0  0  0  0
    2.1989    0.2633    0.0000 O   0  0  0  0  0  0  0  0  0  0  0  0
    8.5799   15.4708    0.0000 O   0  0  0  0  0  0  0  0  0  0  0  0
    8.5799   23.4072    0.0000 O   0  0  0  0  0  0  0  0  0  0  0  0
    9.5799   14.4708    0.0000 O   0  0  0  0  0  0  0  0  0  0  0  0
    7.5799   14.4708    0.0000 O   0  0  0  0  0  0  0  0  0  0  0  0
    9.5799   22.4072    0.0000 O   0  0  0  0  0  0  0  0  0  0  0  0
    7.5799   22.4072    0.0000 O   0  0  0  0  0  0  0  0  0  0  0  0
    3.4191    3.0039    0.0000 N   0  0  0  0  0  0  0  0  0  0  0  0
    9.3835    4.1898    0.0000 N   0  0  0  0  0  0  0  0  0  0  0  0
    9.3951    7.2591    0.0000 N   0  0  0  0  0  0  0  0  0  0  0  0
   10.3011    5.7036    0.0000 N   0  0  0  0  0  0  0  0  0  0  0  0
    6.7691    5.7244    0.0000 C   0  0  0  0  0  0  0  0  0  0  0  0
    5.9031    5.2244    0.0000 C   0  0  0  0  0  0  0  0  0  0  0  0
    8.5011    5.7244    0.0000 C   0  0  0  0  0  0  0  0  0  0  0  0
    4.8204    4.0220    0.0000 C   0  0  0  0  0  0  0  0  0  0  0  0
    4.4136    3.1084    0.0000 C   0  0  0  0  0  0  0  0  0  0  0  0
    7.6351    5.2244    0.0000 C   0  0  0  0  0  0  0  0  0  0  0  0
    8.5011    6.7244    0.0000 C   0  0  0  0  0  0  0  0  0  0  0  0
    4.9895    5.6312    0.0000 C   0  0  0  0  0  0  0  0  0  0  0  0
    6.7691    6.7244    0.0000 C   0  0  0  0  0  0  0  0  0  0  0  0
    3.0124    2.0904    0.0000 C   0  0  0  0  0  0  0  0  0  0  0  0
    4.3204    4.8880    0.0000 C   0  0  0  0  0  0  0  0  0  0  0  0
    9.3951    5.1898    0.0000 C   0  0  0  0  0  0  0  0  0  0  0  0
    7.6351    7.2244    0.0000 C   0  0  0  0  0  0  0  0  0  0  0  0
    2.0179    1.9858    0.0000 C   0  0  0  0  0  0  0  0  0  0  0  0
   10.2437    3.6798    0.0000 C   0  0  0  0  0  0  0  0  0  0  0  0
   10.3011    6.7452    0.0000 C   0  0  0  0  0  0  0  0  0  0  0  0
   10.2321    2.6799    0.0000 C   0  0  0  0  0  0  0  0  0  0  0  0
   11.1154    4.1698    0.0000 C   0  0  0  0  0  0  0  0  0  0  0  0
   11.9641    2.6599    0.0000 C   0  0  0  0  0  0  0  0  0  0  0  0
   11.0923    2.1699    0.0000 C   0  0  0  0  0  0  0  0  0  0  0  0
   11.9756    3.6598    0.0000 C   0  0  0  0  0  0  0  0  0  0  0  0
    0.6166    0.9678    0.0000 C   0  0  0  0  0  0  0  0  0  0  0  0
   13.6960    2.6398    0.0000 C   0  0  0  0  0  0  0  0  0  0  0  0
   14.5562    2.1299    0.0000 C   0  0  0  0  0  0  0  0  0  0  0  0
   15.4279    2.6198    0.0000 C   0  0  0  0  0  0  0  0  0  0  0  0
   14.5446    1.1299    0.0000 C   0  0  0  0  0  0  0  0  0  0  0  0
   16.2881    2.1098    0.0000 C   0  0  0  0  0  0  0  0  0  0  0  0
   15.4048    0.6200    0.0000 C   0  0  0  0  0  0  0  0  0  0  0  0
   16.2766    1.1099    0.0000 C   0  0  0  0  0  0  0  0  0  0  0  0
    8.5799   13.4708    0.0000 C   0  0  0  0  0  0  0  0  0  0  0  0
    8.5799   21.4072    0.0000 C   0  0  0  0  0  0  0  0  0  0  0  0
    8.5799   11.4708    0.0000 C   0  0  0  0  0  0  0  0  0  0  0  0
    8.5799   19.4072    0.0000 C   0  0  0  0  0  0  0  0  0  0  0  0
    7.7139   12.9708    0.0000 C   0  0  0  0  0  0  0  0  0  0  0  0
    7.7139   20.9072    0.0000 C   0  0  0  0  0  0  0  0  0  0  0  0
    9.4460   12.9708    0.0000 C   0  0  0  0  0  0  0  0  0  0  0  0
    9.4460   20.9072    0.0000 C   0  0  0  0  0  0  0  0  0  0  0  0
    7.7139   11.9708    0.0000 C   0  0  0  0  0  0  0  0  0  0  0  0
    7.7139   19.9072    0.0000 C   0  0  0  0  0  0  0  0  0  0  0  0
    9.4460   11.9708    0.0000 C   0  0  0  0  0  0  0  0  0  0  0  0
    9.4460   19.9072    0.0000 C   0  0  0  0  0  0  0  0  0  0  0  0
    8.5799   10.4708    0.0000 C   0  0  0  0  0  0  0  0  0  0  0  0
    8.5799   18.4072    0.0000 C   0  0  0  0  0  0  0  0  0  0  0  0
    4.3704    2.4900    0.0000 H   0  0  0  0  0  0  0  0  0  0  0  0
    5.0152    2.9584    0.0000 H   0  0  0  0  0  0  0  0  0  0  0  0
    7.6351    4.6044    0.0000 H   0  0  0  0  0  0  0  0  0  0  0  0
    4.8606    6.2376    0.0000 H   0  0  0  0  0  0  0  0  0  0  0  0
    6.2322    7.0344    0.0000 H   0  0  0  0  0  0  0  0  0  0  0  0
    2.9691    1.4719    0.0000 H   0  0  0  0  0  0  0  0  0  0  0  0
    3.6140    1.9404    0.0000 H   0  0  0  0  0  0  0  0  0  0  0  0
    3.7038    4.9528    0.0000 H   0  0  0  0  0  0  0  0  0  0  0  0
    3.0547    3.5055    0.0000 H   0  0  0  0  0  0  0  0  0  0  0  0
    7.6351    7.8444    0.0000 H   0  0  0  0  0  0  0  0  0  0  0  0
    2.0611    2.6043    0.0000 H   0  0  0  0  0  0  0  0  0  0  0  0
    1.4163    2.1358    0.0000 H   0  0  0  0  0  0  0  0  0  0  0  0
    8.8430    3.8860    0.0000 H   0  0  0  0  0  0  0  0  0  0  0  0
   10.8369    7.0573    0.0000 H   0  0  0  0  0  0  0  0  0  0  0  0
    9.6916    2.3761    0.0000 H   0  0  0  0  0  0  0  0  0  0  0  0
   11.1226    4.7898    0.0000 H   0  0  0  0  0  0  0  0  0  0  0  0
   12.5161    3.9636    0.0000 H   0  0  0  0  0  0  0  0  0  0  0  0
    0.5518    1.5844    0.0000 H   0  0  0  0  0  0  0  0  0  0  0  0
    0.0000    0.9030    0.0000 H   0  0  0  0  0  0  0  0  0  0  0  0
    0.6814    0.3512    0.0000 H   0  0  0  0  0  0  0  0  0  0  0  0
   14.1000    3.1102    0.0000 H   0  0  0  0  0  0  0  0  0  0  0  0
   13.3030    3.1194    0.0000 H   0  0  0  0  0  0  0  0  0  0  0  0
   15.4351    3.2398    0.0000 H   0  0  0  0  0  0  0  0  0  0  0  0
   14.0041    0.8262    0.0000 H   0  0  0  0  0  0  0  0  0  0  0  0
   15.3976    0.0000    0.0000 H   0  0  0  0  0  0  0  0  0  0  0  0
   16.8099    0.7937    0.0000 H   0  0  0  0  0  0  0  0  0  0  0  0
    7.1770   13.2808    0.0000 H   0  0  0  0  0  0  0  0  0  0  0  0
    7.1770   21.2172    0.0000 H   0  0  0  0  0  0  0  0  0  0  0  0
    9.9829   13.2808    0.0000 H   0  0  0  0  0  0  0  0  0  0  0  0
    9.9829   21.2172    0.0000 H   0  0  0  0  0  0  0  0  0  0  0  0
    7.1770   11.6608    0.0000 H   0  0  0  0  0  0  0  0  0  0  0  0
    7.1770   19.5972    0.0000 H   0  0  0  0  0  0  0  0  0  0  0  0
    9.9829   11.6608    0.0000 H   0  0  0  0  0  0  0  0  0  0  0  0
    9.9829   19.5972    0.0000 H   0  0  0  0  0  0  0  0  0  0  0  0
    7.9599   10.4708    0.0000 H   0  0  0  0  0  0  0  0  0  0  0  0
    8.5799    9.8508    0.0000 H   0  0  0  0  0  0  0  0  0  0  0  0
    9.1999   10.4708    0.0000 H   0  0  0  0  0  0  0  0  0  0  0  0
    7.9599   18.4072    0.0000 H   0  0  0  0  0  0  0  0  0  0  0  0
    8.5799   17.7872    0.0000 H   0  0  0  0  0  0  0  0  0  0  0  0
    9.1999   18.4072    0.0000 H   0  0  0  0  0  0  0  0  0  0  0  0
    9.1169   15.7808    0.0000 H   0  0  0  0  0  0  0  0  0  0  0  0
    9.1169   23.7172    0.0000 H   0  0  0  0  0  0  0  0  0  0  0  0
  1 38  1  0  0  0  0
  2  8  2  0  0  0  0
  2 32  1  0  0  0  0
  2 40  1  0  0  0  0
  3  9  1  0  0  0  0
  3 11  2  0  0  0  0
  3 12  2  0  0  0  0
  3 48  1  0  0  0  0
  4 10  1  0  0  0  0
  4 13  2  0  0  0  0
  4 14  2  0  0  0  0
  4 49  1  0  0  0  0
  5 45  1  0  0  0  0
  6 20  1  0  0  0  0
  6 22  1  0  0  0  0
  7 37  1  0  0  0  0
  7 41  1  0  0  0  0
  9102  1  0  0  0  0
 10103  1  0  0  0  0
 15 23  1  0  0  0  0
 15 28  1  0  0  0  0
 15 70  1  0  0  0  0
 16 30  1  0  0  0  0
 16 33  1  0  0  0  0
 16 74  1  0  0  0  0
 17 25  1  0  0  0  0
 17 34  2  0  0  0  0
 18 30  2  0  0  0  0
 18 34  1  0  0  0  0
 19 20  1  0  0  0  0
 19 24  2  0  0  0  0
 19 27  1  0  0  0  0
 20 26  2  0  0  0  0
 21 24  1  0  0  0  0
 21 25  2  0  0  0  0
 21 30  1  0  0  0  0
 22 23  1  0  0  0  0
 22 29  2  0  0  0  0
 23 62  1  0  0  0  0
 23 63  1  0  0  0  0
 24 64  1  0  0  0  0
 25 31  1  0  0  0  0
 26 29  1  0  0  0  0
 26 65  1  0  0  0  0
 27 31  2  0  0  0  0
 27 66  1  0  0  0  0
 28 32  1  0  0  0  0
 28 67  1  0  0  0  0
 28 68  1  0  0  0  0
 29 69  1  0  0  0  0
 31 71  1  0  0  0  0
 32 72  1  0  0  0  0
 32 73  1  0  0  0  0
 33 35  2  0  0  0  0
 33 36  1  0  0  0  0
 34 75  1  0  0  0  0
 35 38  1  0  0  0  0
 35 76  1  0  0  0  0
 36 39  2  0  0  0  0
 36 77  1  0  0  0  0
 37 38  2  0  0  0  0
 37 39  1  0  0  0  0
 39 78  1  0  0  0  0
 40 79  1  0  0  0  0
 40 80  1  0  0  0  0
 40 81  1  0  0  0  0
 41 42  1  0  0  0  0
 41 82  1  0  0  0  0
 41 83  1  0  0  0  0
 42 43  2  0  0  0  0
 42 44  1  0  0  0  0
 43 45  1  0  0  0  0
 43 84  1  0  0  0  0
 44 46  2  0  0  0  0
 44 85  1  0  0  0  0
 45 47  2  0  0  0  0
 46 47  1  0  0  0  0
 46 86  1  0  0  0  0
 47 87  1  0  0  0  0
 48 52  2  0  0  0  0
 48 54  1  0  0  0  0
 49 53  2  0  0  0  0
 49 55  1  0  0  0  0
 50 56  2  0  0  0  0
 50 58  1  0  0  0  0
 50 60  1  0  0  0  0
 51 57  2  0  0  0  0
 51 59  1  0  0  0  0
 51 61  1  0  0  0  0
 52 56  1  0  0  0  0
 52 88  1  0  0  0  0
 53 57  1  0  0  0  0
 53 89  1  0  0  0  0
 54 58  2  0  0  0  0
 54 90  1  0  0  0  0
 55 59  2  0  0  0  0
 55 91  1  0  0  0  0
 56 92  1  0  0  0  0
 57 93  1  0  0  0  0
 58 94  1  0  0  0  0
 59 95  1  0  0  0  0
 60 96  1  0  0  0  0
 60 97  1  0  0  0  0
 60 98  1  0  0  0  0
 61 99  1  0  0  0  0
 61100  1  0  0  0  0
 61101  1  0  0  0  0
M  END
> <PUBCHEM_COMPOUND_CID>
71722042

> <PUBCHEM_COMPOUND_CANONICALIZED>
1

> <PUBCHEM_CACTVS_COMPLEXITY>
993

> <PUBCHEM_CACTVS_HBOND_ACCEPTOR>
15

> <PUBCHEM_CACTVS_HBOND_DONOR>
4

> <PUBCHEM_CACTVS_ROTATABLE_BOND>
13

> <PUBCHEM_CACTVS_SUBSKEYS>
AAADcfB/vQBkAAAAAAAAAAAAAAAAASAAAAA8YMGDAAAAAACx/AAAHwYQCAAADA7l3i639/bIFMqoA6ZzZHDCiGk1J/AJ2Lm+b9iOLvPF//uHPSjs0BPY6ae42fOeGEACAAICCAAwgAQABAQQAAAAAAAAAA==

> <PUBCHEM_IUPAC_OPENEYE_NAME>
N-[3-chloro-4-[(3-fluorophenyl)methoxy]phenyl]-6-[5-[(2-methylsulfinylethylamino)methyl]-2-furyl]quinazolin-4-amine;4-methylbenzenesulfonic acid

> <PUBCHEM_IUPAC_CAS_NAME>
N-[3-chloro-4-[(3-fluorophenyl)methoxy]phenyl]-6-[5-[(2-methylsulfinylethylamino)methyl]-2-furanyl]-4-quinazolinamine;4-methylbenzenesulfonic acid

> <PUBCHEM_IUPAC_NAME_MARKUP>
<I>N</I>-[3-chloro-4-[(3-fluorophenyl)methoxy]phenyl]-6-[5-[(2-methylsulfinylethylamino)methyl]furan-2-yl]quinazolin-4-amine;4-methylbenzenesulfonic acid

> <PUBCHEM_IUPAC_NAME>
N-[3-chloro-4-[(3-fluorophenyl)methoxy]phenyl]-6-[5-[(2-methylsulfinylethylamino)methyl]furan-2-yl]quinazolin-4-amine;4-methylbenzenesulfonic acid

> <PUBCHEM_IUPAC_SYSTEMATIC_NAME>
N-[3-chloranyl-4-[(3-fluorophenyl)methoxy]phenyl]-6-[5-[(2-methylsulfinylethylamino)methyl]furan-2-yl]quinazolin-4-amine;4-methylbenzenesulfonic acid

> <PUBCHEM_IUPAC_TRADITIONAL_NAME>
[5-[4-[3-chloro-4-(3-fluorobenzyl)oxy-anilino]quinazolin-6-yl]-2-furyl]methyl-(2-methylsulfinylethyl)amine;tosylic acid

> <PUBCHEM_IUPAC_INCHI>
InChI=1S/C29H26ClFN4O3S.2C7H8O3S/c1-39(36)12-11-32-16-23-7-10-27(38-23)20-5-8-26-24(14-20)29(34-18-33-26)35-22-6-9-28(25(30)15-22)37-17-19-3-2-4-21(31)13-19;2*1-6-2-4-7(5-3-6)11(8,9)10/h2-10,13-15,18,32H,11-12,16-17H2,1H3,(H,33,34,35);2*2-5H,1H3,(H,8,9,10)

> <PUBCHEM_IUPAC_INCHIKEY>
GUPXYZHIHDNPSW-UHFFFAOYSA-N

> <PUBCHEM_EXACT_MASS>
908.1786483

> <PUBCHEM_MOLECULAR_FORMULA>
C43H42ClFN4O9S3

> <PUBCHEM_MOLECULAR_WEIGHT>
909.5

> <PUBCHEM_OPENEYE_CAN_SMILES>
CC1=CC=C(C=C1)S(=O)(=O)O.CC1=CC=C(C=C1)S(=O)(=O)O.CS(=O)CCNCC1=CC=C(O1)C2=CC3=C(C=C2)N=CN=C3NC4=CC(=C(C=C4)OCC5=CC(=CC=C5)F)Cl

> <PUBCHEM_OPENEYE_ISO_SMILES>
CC1=CC=C(C=C1)S(=O)(=O)O.CC1=CC=C(C=C1)S(=O)(=O)O.CS(=O)CCNCC1=CC=C(O1)C2=CC3=C(C=C2)N=CN=C3NC4=CC(=C(C=C4)OCC5=CC(=CC=C5)F)Cl

> <PUBCHEM_CACTVS_TPSA>
234

> <PUBCHEM_MONOISOTOPIC_WEIGHT>
908.1786483

> <PUBCHEM_TOTAL_CHARGE>
0

> <PUBCHEM_HEAVY_ATOM_COUNT>
61

> <PUBCHEM_ATOM_DEF_STEREO_COUNT>
0

> <PUBCHEM_ATOM_UDEF_STEREO_COUNT>
1

> <PUBCHEM_BOND_DEF_STEREO_COUNT>
0

> <PUBCHEM_BOND_UDEF_STEREO_COUNT>
0

> <PUBCHEM_ISOTOPIC_ATOM_COUNT>
0

> <PUBCHEM_COMPONENT_COUNT>
3

> <PUBCHEM_CACTVS_TAUTO_COUNT>
-1

> <PUBCHEM_COORDINATE_TYPE>
1
5
255

> <PUBCHEM_BONDANNOTATIONS>
17  25  8
17  34  8
18  30  8
18  34  8
19  24  8
19  27  8
2  40  3
20  26  8
21  24  8
21  25  8
21  30  8
22  29  8
25  31  8
26  29  8
27  31  8
33  35  8
33  36  8
35  38  8
36  39  8
37  38  8
37  39  8
42  43  8
42  44  8
43  45  8
44  46  8
45  47  8
46  47  8
48  52  8
48  54  8
49  53  8
49  55  8
50  56  8
50  58  8
51  57  8
51  59  8
52  56  8
53  57  8
54  58  8
55  59  8
6  20  8
6  22  8

$$$$
86567195
  -OEChem-11282412102D

 93100  0     1  0  0  0  0  0999 V2000
    2.0000    2.7884    0.0000 O   0  0  0  0  0  0  0  0  0  0  0  0
   13.3045   -0.1703    0.0000 O   0  0  0  0  0  0  0  0  0  0  0  0
   12.9021    1.5232    0.0000 O   0  0  0  0  0  0  0  0  0  0  0  0
   12.1949    4.9143    0.0000 O   0  0  0  0  0  0  0  0  0  0  0  0
   13.3605   -2.8535    0.0000 N   0  0  0  0  0  0  0  0  0  0  0  0
    4.3634    3.2812    0.0000 N   0  0  3  0  0  0  0  0  0  0  0  0
    6.3213    3.6895    0.0000 N   0  0  3  0  0  0  0  0  0  0  0  0
   11.9640   -1.3264    0.0000 N   0  0  0  0  0  0  0  0  0  0  0  0
   10.3188   -0.7848    0.0000 N   0  0  0  0  0  0  0  0  0  0  0  0
    8.9454    3.3520    0.0000 N   0  0  0  0  0  0  0  0  0  0  0  0
   10.2370    4.5060    0.0000 N   0  0  0  0  0  0  0  0  0  0  0  0
   12.5485    3.2187    0.0000 N   0  0  0  0  0  0  0  0  0  0  0  0
   15.4732   -4.3850    0.0000 C   0  0  0  0  0  0  0  0  0  0  0  0
   14.4791   -4.3859    0.0000 C   0  0  0  0  0  0  0  0  0  0  0  0
   15.7812   -3.4399    0.0000 C   0  0  0  0  0  0  0  0  0  0  0  0
   14.1695   -3.4413    0.0000 C   0  0  0  0  0  0  0  0  0  0  0  0
   14.9785   -2.8535    0.0000 C   0  0  0  0  0  0  0  0  0  0  0  0
   16.4243   -4.6941    0.0000 C   0  0  0  0  0  0  0  0  0  0  0  0
   15.4732   -5.3850    0.0000 C   0  0  0  0  0  0  0  0  0  0  0  0
   13.6695   -1.9024    0.0000 C   0  0  0  0  0  0  0  0  0  0  0  0
   14.6695   -1.9024    0.0000 C   0  0  0  0  0  0  0  0  0  0  0  0
   12.3451   -3.0858    0.0000 C   0  0  0  0  0  0  0  0  0  0  0  0
    3.3844    3.0770    0.0000 C   0  0  0  0  0  0  0  0  0  0  0  0
    4.6760    4.2310    0.0000 C   0  0  0  0  0  0  0  0  0  0  0  0
    5.6550    4.4352    0.0000 C   0  0  2  0  0  0  0  0  0  0  0  0
    5.0296    2.5355    0.0000 C   0  0  0  0  0  0  0  0  0  0  0  0
   11.6421   -2.3171    0.0000 C   0  0  0  0  0  0  0  0  0  0  0  0
    6.0086    2.7396    0.0000 C   0  0  0  0  0  0  0  0  0  0  0  0
   12.9845   -1.1177    0.0000 C   0  0  0  0  0  0  0  0  0  0  0  0
    2.8366    2.2405    0.0000 C   0  0  0  0  0  0  0  0  0  0  0  0
    2.5479    3.6249    0.0000 C   0  0  0  0  0  0  0  0  0  0  0  0
    5.9677    5.3850    0.0000 C   0  0  0  0  0  0  0  0  0  0  0  0
    7.3002    3.8936    0.0000 C   0  0  0  0  0  0  0  0  0  0  0  0
   11.2978   -0.5807    0.0000 C   0  0  0  0  0  0  0  0  0  0  0  0
   11.6104    0.3692    0.0000 C   0  0  0  0  0  0  0  0  0  0  0  0
    7.6129    4.8435    0.0000 C   0  0  0  0  0  0  0  0  0  0  0  0
    7.9665    3.1479    0.0000 C   0  0  0  0  0  0  0  0  0  0  0  0
   10.9442    1.1149    0.0000 C   0  0  0  0  0  0  0  0  0  0  0  0
   12.5894    0.5733    0.0000 C   0  0  0  0  0  0  0  0  0  0  0  0
    8.5918    5.0476    0.0000 C   0  0  0  0  0  0  0  0  0  0  0  0
    9.2581    4.3019    0.0000 C   0  0  0  0  0  0  0  0  0  0  0  0
    9.6526   -0.0391    0.0000 C   0  0  0  0  0  0  0  0  0  0  0  0
    9.9652    0.9107    0.0000 C   0  0  0  0  0  0  0  0  0  0  0  0
   11.2569    2.0647    0.0000 C   0  0  0  0  0  0  0  0  0  0  0  0
   10.5906    2.8105    0.0000 C   0  0  0  0  0  0  0  0  0  0  0  0
   10.9033    3.7603    0.0000 C   0  0  0  0  0  0  0  0  0  0  0  0
   12.2358    2.2689    0.0000 C   0  0  0  0  0  0  0  0  0  0  0  0
   11.8822    3.9645    0.0000 C   0  0  0  0  0  0  0  0  0  0  0  0
   13.5274    3.4229    0.0000 C   0  0  0  0  0  0  0  0  0  0  0  0
   13.8730   -4.5160    0.0000 H   0  0  0  0  0  0  0  0  0  0  0  0
   14.5448   -5.0024    0.0000 H   0  0  0  0  0  0  0  0  0  0  0  0
   16.3473   -3.6929    0.0000 H   0  0  0  0  0  0  0  0  0  0  0  0
   16.0923   -2.9036    0.0000 H   0  0  0  0  0  0  0  0  0  0  0  0
   16.2327   -5.2837    0.0000 H   0  0  0  0  0  0  0  0  0  0  0  0
   17.0139   -4.8857    0.0000 H   0  0  0  0  0  0  0  0  0  0  0  0
   16.6159   -4.1044    0.0000 H   0  0  0  0  0  0  0  0  0  0  0  0
   14.8532   -5.3850    0.0000 H   0  0  0  0  0  0  0  0  0  0  0  0
   15.4732   -6.0050    0.0000 H   0  0  0  0  0  0  0  0  0  0  0  0
   16.0932   -5.3850    0.0000 H   0  0  0  0  0  0  0  0  0  0  0  0
   15.0339   -1.4008    0.0000 H   0  0  0  0  0  0  0  0  0  0  0  0
   11.8227   -3.4197    0.0000 H   0  0  0  0  0  0  0  0  0  0  0  0
   12.5847   -3.6576    0.0000 H   0  0  0  0  0  0  0  0  0  0  0  0
    3.7336    2.5648    0.0000 H   0  0  0  0  0  0  0  0  0  0  0  0
    4.6568    4.8508    0.0000 H   0  0  0  0  0  0  0  0  0  0  0  0
    4.0624    4.3197    0.0000 H   0  0  0  0  0  0  0  0  0  0  0  0
    6.2619    4.5618    0.0000 H   0  0  0  0  0  0  0  0  0  0  0  0
    4.5026    2.2090    0.0000 H   0  0  0  0  0  0  0  0  0  0  0  0
    5.2597    1.9597    0.0000 H   0  0  0  0  0  0  0  0  0  0  0  0
   11.0940   -2.0274    0.0000 H   0  0  0  0  0  0  0  0  0  0  0  0
   11.2630   -2.8076    0.0000 H   0  0  0  0  0  0  0  0  0  0  0  0
    6.0278    2.1199    0.0000 H   0  0  0  0  0  0  0  0  0  0  0  0
    6.6222    2.6510    0.0000 H   0  0  0  0  0  0  0  0  0  0  0  0
    2.4969    1.7218    0.0000 H   0  0  0  0  0  0  0  0  0  0  0  0
    3.3552    1.9008    0.0000 H   0  0  0  0  0  0  0  0  0  0  0  0
    2.8876    4.1436    0.0000 H   0  0  0  0  0  0  0  0  0  0  0  0
    2.0292    3.9646    0.0000 H   0  0  0  0  0  0  0  0  0  0  0  0
    6.5566    5.1912    0.0000 H   0  0  0  0  0  0  0  0  0  0  0  0
    6.1615    5.9740    0.0000 H   0  0  0  0  0  0  0  0  0  0  0  0
    5.3788    5.5789    0.0000 H   0  0  0  0  0  0  0  0  0  0  0  0
    7.1998    5.3058    0.0000 H   0  0  0  0  0  0  0  0  0  0  0  0
    7.7726    2.5590    0.0000 H   0  0  0  0  0  0  0  0  0  0  0  0
   12.6086   -0.0464    0.0000 H   0  0  0  0  0  0  0  0  0  0  0  0
   13.2030    0.4846    0.0000 H   0  0  0  0  0  0  0  0  0  0  0  0
    8.7857    5.6365    0.0000 H   0  0  0  0  0  0  0  0  0  0  0  0
    9.0456   -0.1657    0.0000 H   0  0  0  0  0  0  0  0  0  0  0  0
    9.5522    1.3731    0.0000 H   0  0  0  0  0  0  0  0  0  0  0  0
   10.4309    5.0950    0.0000 H   0  0  0  0  0  0  0  0  0  0  0  0
    9.9837    2.6839    0.0000 H   0  0  0  0  0  0  0  0  0  0  0  0
   12.6489    1.8065    0.0000 H   0  0  0  0  0  0  0  0  0  0  0  0
   13.5090    1.6497    0.0000 H   0  0  0  0  0  0  0  0  0  0  0  0
   13.6540    2.8159    0.0000 H   0  0  0  0  0  0  0  0  0  0  0  0
   14.1344    3.5494    0.0000 H   0  0  0  0  0  0  0  0  0  0  0  0
   13.4009    4.0298    0.0000 H   0  0  0  0  0  0  0  0  0  0  0  0
  1 30  1  0  0  0  0
  1 31  1  0  0  0  0
  2 29  2  0  0  0  0
  3 39  1  0  0  0  0
  3 90  1  0  0  0  0
  4 48  2  0  0  0  0
  5 16  1  0  0  0  0
  5 20  1  0  0  0  0
  5 22  1  0  0  0  0
  6 23  1  0  0  0  0
  6 24  1  0  0  0  0
  6 26  1  0  0  0  0
  7 25  1  0  0  0  0
  7 28  1  0  0  0  0
  7 33  1  0  0  0  0
  8 27  1  0  0  0  0
  8 29  1  0  0  0  0
  8 34  1  0  0  0  0
  9 34  2  0  0  0  0
  9 42  1  0  0  0  0
 10 37  1  0  0  0  0
 10 41  2  0  0  0  0
 11 41  1  0  0  0  0
 11 46  1  0  0  0  0
 11 87  1  0  0  0  0
 12 47  1  0  0  0  0
 12 48  1  0  0  0  0
 12 49  1  0  0  0  0
 13 14  1  0  0  0  0
 13 15  1  0  0  0  0
 13 18  1  0  0  0  0
 13 19  1  0  0  0  0
 14 16  1  0  0  0  0
 14 50  1  0  0  0  0
 14 51  1  0  0  0  0
 15 17  1  0  0  0  0
 15 52  1  0  0  0  0
 15 53  1  0  0  0  0
 16 17  2  0  0  0  0
 17 21  1  0  0  0  0
 18 54  1  0  0  0  0
 18 55  1  0  0  0  0
 18 56  1  0  0  0  0
 19 57  1  0  0  0  0
 19 58  1  0  0  0  0
 19 59  1  0  0  0  0
 20 21  2  0  0  0  0
 20 29  1  0  0  0  0
 21 60  1  0  0  0  0
 22 27  1  0  0  0  0
 22 61  1  0  0  0  0
 22 62  1  0  0  0  0
 23 30  1  0  0  0  0
 23 31  1  0  0  0  0
 23 63  1  0  0  0  0
 24 25  1  0  0  0  0
 24 64  1  0  0  0  0
 24 65  1  0  0  0  0
 25 32  1  6  0  0  0
 25 66  1  0  0  0  0
 26 28  1  0  0  0  0
 26 67  1  0  0  0  0
 26 68  1  0  0  0  0
 27 69  1  0  0  0  0
 27 70  1  0  0  0  0
 28 71  1  0  0  0  0
 28 72  1  0  0  0  0
 30 73  1  0  0  0  0
 30 74  1  0  0  0  0
 31 75  1  0  0  0  0
 31 76  1  0  0  0  0
 32 77  1  0  0  0  0
 32 78  1  0  0  0  0
 32 79  1  0  0  0  0
 33 36  1  0  0  0  0
 33 37  2  0  0  0  0
 34 35  1  0  0  0  0
 35 38  2  0  0  0  0
 35 39  1  0  0  0  0
 36 40  2  0  0  0  0
 36 80  1  0  0  0  0
 37 81  1  0  0  0  0
 38 43  1  0  0  0  0
 38 44  1  0  0  0  0
 39 82  1  0  0  0  0
 39 83  1  0  0  0  0
 40 41  1  0  0  0  0
 40 84  1  0  0  0  0
 42 43  2  0  0  0  0
 42 85  1  0  0  0  0
 43 86  1  0  0  0  0
 44 45  1  0  0  0  0
 44 47  2  0  0  0  0
 45 46  2  0  0  0  0
 45 88  1  0  0  0  0
 46 48  1  0  0  0  0
 47 89  1  0  0  0  0
 49 91  1  0  0  0  0
 49 92  1  0  0  0  0
 49 93  1  0  0  0  0
M  END
> <PUBCHEM_COMPOUND_CID>
86567195

> <PUBCHEM_COMPOUND_CANONICALIZED>
1

> <PUBCHEM_CACTVS_COMPLEXITY>
1340

> <PUBCHEM_CACTVS_HBOND_ACCEPTOR>
9

> <PUBCHEM_CACTVS_HBOND_DONOR>
2

> <PUBCHEM_CACTVS_ROTATABLE_BOND>
7

> <PUBCHEM_CACTVS_SUBSKEYS>
AAADcfB/+AAAAAAAAAAAAAAAAABIAeIAAAAsWLFiAAAWAFgB+AAAHgAQCAAADijhngY/8JPMFgCoAzd3dACCgCk3EiAJ2CG4fNiKdvLAnbGVcQhu1wPY2aeYmcKfgAAAAAAAAAAAAAAAAAAAASAAAQAAAA==

> <PUBCHEM_IUPAC_OPENEYE_NAME>
10-[3-(hydroxymethyl)-4-[1-methyl-5-[[5-[(2S)-2-methyl-4-(oxetan-3-yl)piperazin-1-yl]-2-pyridyl]amino]-6-oxo-3-pyridyl]-2-pyridyl]-4,4-dimethyl-1,10-diazatricyclo[6.4.0.02,6]dodeca-2(6),7-dien-9-one

> <PUBCHEM_IUPAC_CAS_NAME>
10-[3-(hydroxymethyl)-4-[1-methyl-5-[[5-[(2S)-2-methyl-4-(3-oxetanyl)-1-piperazinyl]-2-pyridinyl]amino]-6-oxo-3-pyridinyl]-2-pyridinyl]-4,4-dimethyl-1,10-diazatricyclo[6.4.0.02,6]dodeca-2(6),7-dien-9-one

> <PUBCHEM_IUPAC_NAME_MARKUP>
10-[3-(hydroxymethyl)-4-[1-methyl-5-[[5-[(2<I>S</I>)-2-methyl-4-(oxetan-3-yl)piperazin-1-yl]pyridin-2-yl]amino]-6-oxopyridin-3-yl]pyridin-2-yl]-4,4-dimethyl-1,10-diazatricyclo[6.4.0.0<SUP>2,6</SUP>]dodeca-2(6),7-dien-9-one

> <PUBCHEM_IUPAC_NAME>
10-[3-(hydroxymethyl)-4-[1-methyl-5-[[5-[(2S)-2-methyl-4-(oxetan-3-yl)piperazin-1-yl]pyridin-2-yl]amino]-6-oxopyridin-3-yl]pyridin-2-yl]-4,4-dimethyl-1,10-diazatricyclo[6.4.0.02,6]dodeca-2(6),7-dien-9-one

> <PUBCHEM_IUPAC_SYSTEMATIC_NAME>
10-[3-(hydroxymethyl)-4-[1-methyl-5-[[5-[(2S)-2-methyl-4-(oxetan-3-yl)piperazin-1-yl]pyridin-2-yl]amino]-6-oxidanylidene-pyridin-3-yl]pyridin-2-yl]-4,4-dimethyl-1,10-diazatricyclo[6.4.0.02,6]dodeca-2(6),7-dien-9-one

> <PUBCHEM_IUPAC_TRADITIONAL_NAME>
10-[4-[6-keto-1-methyl-5-[[5-[(2S)-2-methyl-4-(oxetan-3-yl)piperazino]-2-pyridyl]amino]-3-pyridyl]-3-methylol-2-pyridyl]-4,4-dimethyl-1,10-diazatricyclo[6.4.0.02,6]dodeca-2(6),7-dien-9-one

> <PUBCHEM_IUPAC_INCHI>
InChI=1S/C37H44N8O4/c1-23-18-42(27-21-49-22-27)9-10-43(23)26-5-6-33(39-17-26)40-30-13-25(19-41(4)35(30)47)28-7-8-38-34(29(28)20-46)45-12-11-44-31(36(45)48)14-24-15-37(2,3)16-32(24)44/h5-8,13-14,17,19,23,27,46H,9-12,15-16,18,20-22H2,1-4H3,(H,39,40)/t23-/m0/s1

> <PUBCHEM_IUPAC_INCHIKEY>
WNEODWDFDXWOLU-QHCPKHFHSA-N

> <PUBCHEM_XLOGP3_AA>
2.3

> <PUBCHEM_EXACT_MASS>
664.34855191

> <PUBCHEM_MOLECULAR_FORMULA>
C37H44N8O4

> <PUBCHEM_MOLECULAR_WEIGHT>
664.8

> <PUBCHEM_OPENEYE_CAN_SMILES>
CC1CN(CCN1C2=CN=C(C=C2)NC3=CC(=CN(C3=O)C)C4=C(C(=NC=C4)N5CCN6C7=C(CC(C7)(C)C)C=C6C5=O)CO)C8COC8

> <PUBCHEM_OPENEYE_ISO_SMILES>
C[C@H]1CN(CCN1C2=CN=C(C=C2)NC3=CC(=CN(C3=O)C)C4=C(C(=NC=C4)N5CCN6C7=C(CC(C7)(C)C)C=C6C5=O)CO)C8COC8

> <PUBCHEM_CACTVS_TPSA>
119

> <PUBCHEM_MONOISOTOPIC_WEIGHT>
664.34855191

> <PUBCHEM_TOTAL_CHARGE>
0

> <PUBCHEM_HEAVY_ATOM_COUNT>
49

> <PUBCHEM_ATOM_DEF_STEREO_COUNT>
1

> <PUBCHEM_ATOM_UDEF_STEREO_COUNT>
0

> <PUBCHEM_BOND_DEF_STEREO_COUNT>
0

> <PUBCHEM_BOND_UDEF_STEREO_COUNT>
0

> <PUBCHEM_ISOTOPIC_ATOM_COUNT>
0

> <PUBCHEM_COMPONENT_COUNT>
1

> <PUBCHEM_CACTVS_TAUTO_COUNT>
9

> <PUBCHEM_COORDINATE_TYPE>
1
5
255

> <PUBCHEM_BONDANNOTATIONS>
10  37  8
10  41  8
12  47  8
12  48  8
16  17  8
17  21  8
20  21  8
25  32  6
33  36  8
33  37  8
34  35  8
35  38  8
36  40  8
38  43  8
40  41  8
42  43  8
44  45  8
44  47  8
45  46  8
46  48  8
5  16  8
5  20  8
9  34  8
9  42  8

$$$$
117797905
  -OEChem-11282412102D

 50 55  0     0  0  0  0  0  0999 V2000
    7.4376    0.0000    0.0000 S   0  0  0  0  0  0  0  0  0  0  0  0
    8.3882   -0.3107    0.0000 O   0  0  0  0  0  0  0  0  0  0  0  0
    6.4871    0.3107    0.0000 O   0  0  0  0  0  0  0  0  0  0  0  0
    8.6945    1.2552    0.0000 N   0  0  0  0  0  0  0  0  0  0  0  0
    7.1270   -0.9505    0.0000 N   0  0  0  0  0  0  0  0  0  0  0  0
    7.7483    2.5600    0.0000 N   0  0  0  0  0  0  0  0  0  0  0  0
    7.7106   -1.7552    0.0000 N   0  0  0  0  0  0  0  0  0  0  0  0
    5.3147   -2.7553    0.0000 N   0  0  0  0  0  0  0  0  0  0  0  0
   12.8753    0.4188    0.0000 N   0  0  0  0  0  0  0  0  0  0  0  0
    2.5000    0.4472    0.0000 N   0  0  0  0  0  0  0  0  0  0  0  0
   12.3753   -0.4472    0.0000 N   0  0  0  0  0  0  0  0  0  0  0  0
    2.0000   -0.4188    0.0000 N   0  0  0  0  0  0  0  0  0  0  0  0
    7.7483    0.9505    0.0000 C   0  0  0  0  0  0  0  0  0  0  0  0
    6.1808   -1.2552    0.0000 C   0  0  0  0  0  0  0  0  0  0  0  0
    8.6945    2.2553    0.0000 C   0  0  0  0  0  0  0  0  0  0  0  0
    9.5605    0.7553    0.0000 C   0  0  0  0  0  0  0  0  0  0  0  0
   10.4266    1.2552    0.0000 C   0  0  0  0  0  0  0  0  0  0  0  0
    6.1808   -2.2553    0.0000 C   0  0  0  0  0  0  0  0  0  0  0  0
    7.1647    1.7552    0.0000 C   0  0  0  0  0  0  0  0  0  0  0  0
    5.3147   -0.7553    0.0000 C   0  0  0  0  0  0  0  0  0  0  0  0
    9.5605    2.7553    0.0000 C   0  0  0  0  0  0  0  0  0  0  0  0
    4.4487   -1.2552    0.0000 C   0  0  0  0  0  0  0  0  0  0  0  0
   10.4266    2.2553    0.0000 C   0  0  0  0  0  0  0  0  0  0  0  0
   11.2926    0.7553    0.0000 C   0  0  0  0  0  0  0  0  0  0  0  0
    7.1270   -2.5600    0.0000 C   0  0  0  0  0  0  0  0  0  0  0  0
    3.5827   -0.7553    0.0000 C   0  0  0  0  0  0  0  0  0  0  0  0
    4.4487   -2.2553    0.0000 C   0  0  0  0  0  0  0  0  0  0  0  0
   12.2061    1.1620    0.0000 C   0  0  0  0  0  0  0  0  0  0  0  0
   11.3971   -0.2393    0.0000 C   0  0  0  0  0  0  0  0  0  0  0  0
    3.4782    0.2393    0.0000 C   0  0  0  0  0  0  0  0  0  0  0  0
    2.6691   -1.1620    0.0000 C   0  0  0  0  0  0  0  0  0  0  0  0
   13.8698    0.5234    0.0000 C   0  0  0  0  0  0  0  0  0  0  0  0
    2.0933    1.3607    0.0000 C   0  0  0  0  0  0  0  0  0  0  0  0
    9.5605    0.1353    0.0000 H   0  0  0  0  0  0  0  0  0  0  0  0
    6.5447    1.7552    0.0000 H   0  0  0  0  0  0  0  0  0  0  0  0
    5.3147   -0.1353    0.0000 H   0  0  0  0  0  0  0  0  0  0  0  0
    9.5605    3.3752    0.0000 H   0  0  0  0  0  0  0  0  0  0  0  0
   10.9635    2.5652    0.0000 H   0  0  0  0  0  0  0  0  0  0  0  0
    7.3196   -3.1493    0.0000 H   0  0  0  0  0  0  0  0  0  0  0  0
    3.9118   -2.5652    0.0000 H   0  0  0  0  0  0  0  0  0  0  0  0
   12.3350    1.7684    0.0000 H   0  0  0  0  0  0  0  0  0  0  0  0
   10.9364   -0.6541    0.0000 H   0  0  0  0  0  0  0  0  0  0  0  0
    3.9389    0.6541    0.0000 H   0  0  0  0  0  0  0  0  0  0  0  0
    2.5402   -1.7684    0.0000 H   0  0  0  0  0  0  0  0  0  0  0  0
   13.9346   -0.0932    0.0000 H   0  0  0  0  0  0  0  0  0  0  0  0
   14.4864    0.5882    0.0000 H   0  0  0  0  0  0  0  0  0  0  0  0
   13.8050    1.1400    0.0000 H   0  0  0  0  0  0  0  0  0  0  0  0
    2.6597    1.6129    0.0000 H   0  0  0  0  0  0  0  0  0  0  0  0
    1.8411    1.9271    0.0000 H   0  0  0  0  0  0  0  0  0  0  0  0
    1.5269    1.1086    0.0000 H   0  0  0  0  0  0  0  0  0  0  0  0
  1  2  2  0  0  0  0
  1  3  2  0  0  0  0
  1  5  1  0  0  0  0
  1 13  1  0  0  0  0
  4 13  1  0  0  0  0
  4 15  1  0  0  0  0
  4 16  1  0  0  0  0
  5  7  1  0  0  0  0
  5 14  1  0  0  0  0
  6 15  2  0  0  0  0
  6 19  1  0  0  0  0
  7 25  2  0  0  0  0
  8 18  1  0  0  0  0
  8 27  2  0  0  0  0
  9 11  1  0  0  0  0
  9 28  1  0  0  0  0
  9 32  1  0  0  0  0
 10 12  1  0  0  0  0
 10 30  1  0  0  0  0
 10 33  1  0  0  0  0
 11 29  2  0  0  0  0
 12 31  2  0  0  0  0
 13 19  2  0  0  0  0
 14 18  2  0  0  0  0
 14 20  1  0  0  0  0
 15 21  1  0  0  0  0
 16 17  2  0  0  0  0
 16 34  1  0  0  0  0
 17 23  1  0  0  0  0
 17 24  1  0  0  0  0
 18 25  1  0  0  0  0
 19 35  1  0  0  0  0
 20 22  2  0  0  0  0
 20 36  1  0  0  0  0
 21 23  2  0  0  0  0
 21 37  1  0  0  0  0
 22 26  1  0  0  0  0
 22 27  1  0  0  0  0
 23 38  1  0  0  0  0
 24 28  2  0  0  0  0
 24 29  1  0  0  0  0
 25 39  1  0  0  0  0
 26 30  2  0  0  0  0
 26 31  1  0  0  0  0
 27 40  1  0  0  0  0
 28 41  1  0  0  0  0
 29 42  1  0  0  0  0
 30 43  1  0  0  0  0
 31 44  1  0  0  0  0
 32 45  1  0  0  0  0
 32 46  1  0  0  0  0
 32 47  1  0  0  0  0
 33 48  1  0  0  0  0
 33 49  1  0  0  0  0
 33 50  1  0  0  0  0
M  END
> <PUBCHEM_COMPOUND_CID>
117797905

> <PUBCHEM_COMPOUND_CANONICALIZED>
1

> <PUBCHEM_CACTVS_COMPLEXITY>
825

> <PUBCHEM_CACTVS_HBOND_ACCEPTOR>
7

> <PUBCHEM_CACTVS_HBOND_DONOR>
0

> <PUBCHEM_CACTVS_ROTATABLE_BOND>
4

> <PUBCHEM_CACTVS_SUBSKEYS>
AAADceB78ABAAAAAAAAAAAAAAAAAAWLFiwAsWAAAAAAAAFgB/gAAHAQIQAAADAjBXwQ/8b8MGAKiAzZnZHDa1D0xkqAZ2Cw4dJiIaOLA2dGUpAhoiALIyCcQgEAOgAAAAAAAAAAAAAAAAAAAAAAAAAAAAA==

> <PUBCHEM_IUPAC_OPENEYE_NAME>
6-(1-methylpyrazol-4-yl)-1-[6-(1-methylpyrazol-4-yl)imidazo[1,2-a]pyridin-3-yl]sulfonyl-pyrazolo[4,3-b]pyridine

> <PUBCHEM_IUPAC_CAS_NAME>
6-(1-methyl-4-pyrazolyl)-1-[[6-(1-methyl-4-pyrazolyl)-3-imidazo[1,2-a]pyridinyl]sulfonyl]pyrazolo[4,3-b]pyridine

> <PUBCHEM_IUPAC_NAME_MARKUP>
6-(1-methylpyrazol-4-yl)-1-[6-(1-methylpyrazol-4-yl)imidazo[1,2-a]pyridin-3-yl]sulfonylpyrazolo[4,3-b]pyridine

> <PUBCHEM_IUPAC_NAME>
6-(1-methylpyrazol-4-yl)-1-[6-(1-methylpyrazol-4-yl)imidazo[1,2-a]pyridin-3-yl]sulfonylpyrazolo[4,3-b]pyridine

> <PUBCHEM_IUPAC_SYSTEMATIC_NAME>
6-(1-methylpyrazol-4-yl)-1-[6-(1-methylpyrazol-4-yl)imidazo[1,2-a]pyridin-3-yl]sulfonyl-pyrazolo[4,3-b]pyridine

> <PUBCHEM_IUPAC_TRADITIONAL_NAME>
6-(1-methylpyrazol-4-yl)-1-[6-(1-methylpyrazol-4-yl)imidazo[1,2-a]pyridin-3-yl]sulfonyl-pyrazolo[4,3-b]pyridine

> <PUBCHEM_IUPAC_INCHI>
InChI=1S/C21H17N9O2S/c1-27-11-16(7-24-27)14-3-4-20-23-10-21(29(20)13-14)33(31,32)30-19-5-15(6-22-18(19)9-26-30)17-8-25-28(2)12-17/h3-13H,1-2H3

> <PUBCHEM_IUPAC_INCHIKEY>
RYBLECYFLJXEJX-UHFFFAOYSA-N

> <PUBCHEM_XLOGP3_AA>
1.9

> <PUBCHEM_EXACT_MASS>
459.12259199

> <PUBCHEM_MOLECULAR_FORMULA>
C21H17N9O2S

> <PUBCHEM_MOLECULAR_WEIGHT>
459.5

> <PUBCHEM_OPENEYE_CAN_SMILES>
CN1C=C(C=N1)C2=CN3C(=NC=C3S(=O)(=O)N4C5=C(C=N4)N=CC(=C5)C6=CN(N=C6)C)C=C2

> <PUBCHEM_OPENEYE_ISO_SMILES>
CN1C=C(C=N1)C2=CN3C(=NC=C3S(=O)(=O)N4C5=C(C=N4)N=CC(=C5)C6=CN(N=C6)C)C=C2

> <PUBCHEM_CACTVS_TPSA>
126

> <PUBCHEM_MONOISOTOPIC_WEIGHT>
459.12259199

> <PUBCHEM_TOTAL_CHARGE>
0

> <PUBCHEM_HEAVY_ATOM_COUNT>
33

> <PUBCHEM_ATOM_DEF_STEREO_COUNT>
0

> <PUBCHEM_ATOM_UDEF_STEREO_COUNT>
0

> <PUBCHEM_BOND_DEF_STEREO_COUNT>
0

> <PUBCHEM_BOND_UDEF_STEREO_COUNT>
0

> <PUBCHEM_ISOTOPIC_ATOM_COUNT>
0

> <PUBCHEM_COMPONENT_COUNT>
1

> <PUBCHEM_CACTVS_TAUTO_COUNT>
-1

> <PUBCHEM_COORDINATE_TYPE>
1
5
255

> <PUBCHEM_BONDANNOTATIONS>
10  12  8
10  30  8
11  29  8
12  31  8
13  19  8
14  18  8
14  20  8
15  21  8
16  17  8
17  23  8
18  25  8
20  22  8
21  23  8
22  27  8
24  28  8
24  29  8
26  30  8
26  31  8
4  13  8
4  15  8
4  16  8
5  14  8
5  7  8
6  15  8
6  19  8
7  25  8
8  18  8
8  27  8
9  11  8
9  28  8

$$$$
44194961
  -OEChem-11282412102D

 59 61  0     0  0  0  0  0  0999 V2000
    5.7099    0.0000    0.0000 Cl  0  0  0  0  0  0  0  0  0  0  0  0
    0.6106    7.1896    0.0000 O   0  0  0  0  0  0  0  0  0  0  0  0
    5.8067    8.1896    0.0000 O   0  0  0  0  0  0  0  0  0  0  0  0
    5.8067   10.1896    0.0000 O   0  0  0  0  0  0  0  0  0  0  0  0
    2.3426    8.1896    0.0000 N   0  0  0  0  0  0  0  0  0  0  0  0
    9.2872    7.1550    0.0000 N   0  0  0  0  0  0  0  0  0  0  0  0
    9.2988   10.2243    0.0000 N   0  0  0  0  0  0  0  0  0  0  0  0
   10.2048    8.6688    0.0000 N   0  0  0  0  0  0  0  0  0  0  0  0
    3.2087    8.6896    0.0000 C   0  0  0  0  0  0  0  0  0  0  0  0
    2.3426    7.1896    0.0000 C   0  0  0  0  0  0  0  0  0  0  0  0
    1.4766    8.6896    0.0000 C   0  0  0  0  0  0  0  0  0  0  0  0
    4.0747    8.1896    0.0000 C   0  0  0  0  0  0  0  0  0  0  0  0
    1.4766    6.6896    0.0000 C   0  0  0  0  0  0  0  0  0  0  0  0
    0.6106    8.1896    0.0000 C   0  0  0  0  0  0  0  0  0  0  0  0
    4.9407    8.6896    0.0000 C   0  0  0  0  0  0  0  0  0  0  0  0
    6.6728    8.6896    0.0000 C   0  0  0  0  0  0  0  0  0  0  0  0
    8.4048    8.6896    0.0000 C   0  0  0  0  0  0  0  0  0  0  0  0
    7.5388    8.1896    0.0000 C   0  0  0  0  0  0  0  0  0  0  0  0
    6.6728    9.6896    0.0000 C   0  0  0  0  0  0  0  0  0  0  0  0
    8.4048    9.6896    0.0000 C   0  0  0  0  0  0  0  0  0  0  0  0
    7.5388   10.1896    0.0000 C   0  0  0  0  0  0  0  0  0  0  0  0
    9.2988    8.1550    0.0000 C   0  0  0  0  0  0  0  0  0  0  0  0
   10.1474    6.6450    0.0000 C   0  0  0  0  0  0  0  0  0  0  0  0
   10.2048    9.7104    0.0000 C   0  0  0  0  0  0  0  0  0  0  0  0
   10.1358    5.6451    0.0000 C   0  0  0  0  0  0  0  0  0  0  0  0
    5.8067   11.1896    0.0000 C   0  0  0  0  0  0  0  0  0  0  0  0
   11.0191    7.1350    0.0000 C   0  0  0  0  0  0  0  0  0  0  0  0
   10.9960    5.1351    0.0000 C   0  0  0  0  0  0  0  0  0  0  0  0
   11.8793    6.6250    0.0000 C   0  0  0  0  0  0  0  0  0  0  0  0
   11.8677    5.6251    0.0000 C   0  0  0  0  0  0  0  0  0  0  0  0
   10.9844    4.1352    0.0000 C   0  0  0  0  0  0  0  0  0  0  0  0
   10.9729    3.1353    0.0000 C   0  0  0  0  0  0  0  0  0  0  0  0
    3.6072    9.1646    0.0000 H   0  0  0  0  0  0  0  0  0  0  0  0
    2.8101    9.1646    0.0000 H   0  0  0  0  0  0  0  0  0  0  0  0
    2.5547    6.6070    0.0000 H   0  0  0  0  0  0  0  0  0  0  0  0
    2.9532    7.2973    0.0000 H   0  0  0  0  0  0  0  0  0  0  0  0
    1.8751    9.1646    0.0000 H   0  0  0  0  0  0  0  0  0  0  0  0
    1.0781    9.1646    0.0000 H   0  0  0  0  0  0  0  0  0  0  0  0
    3.6762    7.7147    0.0000 H   0  0  0  0  0  0  0  0  0  0  0  0
    4.4732    7.7147    0.0000 H   0  0  0  0  0  0  0  0  0  0  0  0
    1.0781    6.2147    0.0000 H   0  0  0  0  0  0  0  0  0  0  0  0
    1.8751    6.2147    0.0000 H   0  0  0  0  0  0  0  0  0  0  0  0
    0.3985    8.7722    0.0000 H   0  0  0  0  0  0  0  0  0  0  0  0
    0.0000    8.0820    0.0000 H   0  0  0  0  0  0  0  0  0  0  0  0
    5.3392    9.1646    0.0000 H   0  0  0  0  0  0  0  0  0  0  0  0
    4.5422    9.1646    0.0000 H   0  0  0  0  0  0  0  0  0  0  0  0
    7.5388    7.5696    0.0000 H   0  0  0  0  0  0  0  0  0  0  0  0
    7.5388   10.8096    0.0000 H   0  0  0  0  0  0  0  0  0  0  0  0
    8.7467    6.8512    0.0000 H   0  0  0  0  0  0  0  0  0  0  0  0
   10.7406   10.0225    0.0000 H   0  0  0  0  0  0  0  0  0  0  0  0
    9.5953    5.3413    0.0000 H   0  0  0  0  0  0  0  0  0  0  0  0
   11.0263    7.7550    0.0000 H   0  0  0  0  0  0  0  0  0  0  0  0
    6.4267   11.1896    0.0000 H   0  0  0  0  0  0  0  0  0  0  0  0
    5.8067   11.8096    0.0000 H   0  0  0  0  0  0  0  0  0  0  0  0
    5.1867   11.1896    0.0000 H   0  0  0  0  0  0  0  0  0  0  0  0
   12.4198    6.9288    0.0000 H   0  0  0  0  0  0  0  0  0  0  0  0
   12.4011    5.3089    0.0000 H   0  0  0  0  0  0  0  0  0  0  0  0
   10.9657    2.5153    0.0000 H   0  0  0  0  0  0  0  0  0  0  0  0
    6.7099    0.0000    0.0000 H   0  0  0  0  0  0  0  0  0  0  0  0
  1 59  1  0  0  0  0
  2 13  1  0  0  0  0
  2 14  1  0  0  0  0
  3 15  1  0  0  0  0
  3 16  1  0  0  0  0
  4 19  1  0  0  0  0
  4 26  1  0  0  0  0
  5  9  1  0  0  0  0
  5 10  1  0  0  0  0
  5 11  1  0  0  0  0
  6 22  1  0  0  0  0
  6 23  1  0  0  0  0
  6 49  1  0  0  0  0
  7 20  1  0  0  0  0
  7 24  2  0  0  0  0
  8 22  2  0  0  0  0
  8 24  1  0  0  0  0
  9 12  1  0  0  0  0
  9 33  1  0  0  0  0
  9 34  1  0  0  0  0
 10 13  1  0  0  0  0
 10 35  1  0  0  0  0
 10 36  1  0  0  0  0
 11 14  1  0  0  0  0
 11 37  1  0  0  0  0
 11 38  1  0  0  0  0
 12 15  1  0  0  0  0
 12 39  1  0  0  0  0
 12 40  1  0  0  0  0
 13 41  1  0  0  0  0
 13 42  1  0  0  0  0
 14 43  1  0  0  0  0
 14 44  1  0  0  0  0
 15 45  1  0  0  0  0
 15 46  1  0  0  0  0
 16 18  1  0  0  0  0
 16 19  2  0  0  0  0
 17 18  2  0  0  0  0
 17 20  1  0  0  0  0
 17 22  1  0  0  0  0
 18 47  1  0  0  0  0
 19 21  1  0  0  0  0
 20 21  2  0  0  0  0
 21 48  1  0  0  0  0
 23 25  1  0  0  0  0
 23 27  2  0  0  0  0
 24 50  1  0  0  0  0
 25 28  2  0  0  0  0
 25 51  1  0  0  0  0
 26 53  1  0  0  0  0
 26 54  1  0  0  0  0
 26 55  1  0  0  0  0
 27 29  1  0  0  0  0
 27 52  1  0  0  0  0
 28 30  1  0  0  0  0
 28 31  1  0  0  0  0
 29 30  2  0  0  0  0
 29 56  1  0  0  0  0
 30 57  1  0  0  0  0
 31 32  3  0  0  0  0
 32 58  1  0  0  0  0
M  END
> <PUBCHEM_COMPOUND_CID>
44194961

> <PUBCHEM_COMPOUND_CANONICALIZED>
1

> <PUBCHEM_CACTVS_COMPLEXITY>
591

> <PUBCHEM_CACTVS_HBOND_ACCEPTOR>
7

> <PUBCHEM_CACTVS_HBOND_DONOR>
2

> <PUBCHEM_CACTVS_ROTATABLE_BOND>
9

> <PUBCHEM_CACTVS_SUBSKEYS>
AAADceB7sAAEAAAAAAAAAAAAAAAAAAAAAAA8eIEAAAAAAACx9AAAHgAQAAAADAzhngY39vfIFADgGyZjZAiCiCkxIqAJ2CA+7JiPLuLE+duHPCru0Bva6Cew0BMOIEABQgACQABAgAKEAASAAAAAAAAAAA==

> <PUBCHEM_IUPAC_OPENEYE_NAME>
N-(3-ethynylphenyl)-7-methoxy-6-(3-morpholinopropoxy)quinazolin-4-amine;hydrochloride

> <PUBCHEM_IUPAC_CAS_NAME>
N-(3-ethynylphenyl)-7-methoxy-6-[3-(4-morpholinyl)propoxy]-4-quinazolinamine;hydrochloride

> <PUBCHEM_IUPAC_NAME_MARKUP>
<I>N</I>-(3-ethynylphenyl)-7-methoxy-6-(3-morpholin-4-ylpropoxy)quinazolin-4-amine;hydrochloride

> <PUBCHEM_IUPAC_NAME>
N-(3-ethynylphenyl)-7-methoxy-6-(3-morpholin-4-ylpropoxy)quinazolin-4-amine;hydrochloride

> <PUBCHEM_IUPAC_SYSTEMATIC_NAME>
N-(3-ethynylphenyl)-7-methoxy-6-(3-morpholin-4-ylpropoxy)quinazolin-4-amine;hydrochloride

> <PUBCHEM_IUPAC_TRADITIONAL_NAME>
(3-ethynylphenyl)-[7-methoxy-6-(3-morpholinopropoxy)quinazolin-4-yl]amine;hydrochloride

> <PUBCHEM_IUPAC_INCHI>
InChI=1S/C24H26N4O3.ClH/c1-3-18-6-4-7-19(14-18)27-24-20-15-23(22(29-2)16-21(20)25-17-26-24)31-11-5-8-28-9-12-30-13-10-28;/h1,4,6-7,14-17H,5,8-13H2,2H3,(H,25,26,27);1H

> <PUBCHEM_IUPAC_INCHIKEY>
YHFOWANFLQFAKF-UHFFFAOYSA-N

> <PUBCHEM_EXACT_MASS>
454.1771684

> <PUBCHEM_MOLECULAR_FORMULA>
C24H27ClN4O3

> <PUBCHEM_MOLECULAR_WEIGHT>
454.9

> <PUBCHEM_OPENEYE_CAN_SMILES>
COC1=C(C=C2C(=C1)N=CN=C2NC3=CC=CC(=C3)C#C)OCCCN4CCOCC4.Cl

> <PUBCHEM_OPENEYE_ISO_SMILES>
COC1=C(C=C2C(=C1)N=CN=C2NC3=CC=CC(=C3)C#C)OCCCN4CCOCC4.Cl

> <PUBCHEM_CACTVS_TPSA>
68.7

> <PUBCHEM_MONOISOTOPIC_WEIGHT>
454.1771684

> <PUBCHEM_TOTAL_CHARGE>
0

> <PUBCHEM_HEAVY_ATOM_COUNT>
32

> <PUBCHEM_ATOM_DEF_STEREO_COUNT>
0

> <PUBCHEM_ATOM_UDEF_STEREO_COUNT>
0

> <PUBCHEM_BOND_DEF_STEREO_COUNT>
0

> <PUBCHEM_BOND_UDEF_STEREO_COUNT>
0

> <PUBCHEM_ISOTOPIC_ATOM_COUNT>
0

> <PUBCHEM_COMPONENT_COUNT>
2

> <PUBCHEM_CACTVS_TAUTO_COUNT>
-1

> <PUBCHEM_COORDINATE_TYPE>
1
5
255

> <PUBCHEM_BONDANNOTATIONS>
16  18  8
16  19  8
17  18  8
17  20  8
17  22  8
19  21  8
20  21  8
23  25  8
23  27  8
25  28  8
27  29  8
28  30  8
29  30  8
7  20  8
7  24  8
8  22  8
8  24  8

$$$$
5329150
  -OEChem-11282412102D

 51 54  0     0  0  0  0  0  0999 V2000
    8.8600   -1.2470    0.0000 O   0  0  0  0  0  0  0  0  0  0  0  0
   13.2646    2.5858    0.0000 O   0  0  0  0  0  0  0  0  0  0  0  0
   11.9794    3.7470    0.0000 O   0  0  0  0  0  0  0  0  0  0  0  0
    9.3075    0.0440    0.0000 N   0  0  0  0  0  0  0  0  0  0  0  0
    7.2764   -2.0517    0.0000 N   0  0  0  0  0  0  0  0  0  0  0  0
    9.9682    1.5210    0.0000 C   0  0  0  0  0  0  0  0  0  0  0  0
    8.9738    1.6273    0.0000 C   0  0  0  0  0  0  0  0  0  0  0  0
    8.5655    0.7145    0.0000 C   0  0  0  0  0  0  0  0  0  0  0  0
   10.1744    0.5425    0.0000 C   0  0  0  0  0  0  0  0  0  0  0  0
   10.6386    2.2630    0.0000 C   0  0  0  0  0  0  0  0  0  0  0  0
    7.2764   -0.4423    0.0000 C   0  0  0  0  0  0  0  0  0  0  0  0
    7.5870    0.5082    0.0000 C   0  0  0  0  0  0  0  0  0  0  0  0
    6.3301   -0.7470    0.0000 C   0  0  0  0  0  0  0  0  0  0  0  0
    6.3301   -1.7470    0.0000 C   0  0  0  0  0  0  0  0  0  0  0  0
    8.4753    2.4942    0.0000 C   0  0  0  0  0  0  0  0  0  0  0  0
   11.6164    2.0534    0.0000 C   0  0  0  0  0  0  0  0  0  0  0  0
   11.0872    0.1342    0.0000 C   0  0  0  0  0  0  0  0  0  0  0  0
    7.8600   -1.2470    0.0000 C   0  0  0  0  0  0  0  0  0  0  0  0
    5.4641   -0.2470    0.0000 C   0  0  0  0  0  0  0  0  0  0  0  0
    5.4641   -2.2470    0.0000 C   0  0  0  0  0  0  0  0  0  0  0  0
    4.5981   -1.7470    0.0000 C   0  0  0  0  0  0  0  0  0  0  0  0
    4.5981   -0.7470    0.0000 C   0  0  0  0  0  0  0  0  0  0  0  0
    3.7320   -2.2470    0.0000 C   0  0  0  0  0  0  0  0  0  0  0  0
   12.2868    2.7954    0.0000 C   0  0  0  0  0  0  0  0  0  0  0  0
    3.7320   -3.2470    0.0000 C   0  0  0  0  0  0  0  0  0  0  0  0
    2.8660   -1.7470    0.0000 C   0  0  0  0  0  0  0  0  0  0  0  0
    2.8660   -3.7470    0.0000 C   0  0  0  0  0  0  0  0  0  0  0  0
    2.0000   -2.2470    0.0000 C   0  0  0  0  0  0  0  0  0  0  0  0
    2.0000   -3.2470    0.0000 C   0  0  0  0  0  0  0  0  0  0  0  0
   10.8718    2.8375    0.0000 H   0  0  0  0  0  0  0  0  0  0  0  0
   10.1134    2.5925    0.0000 H   0  0  0  0  0  0  0  0  0  0  0  0
    9.2416   -0.5724    0.0000 H   0  0  0  0  0  0  0  0  0  0  0  0
    7.1730    0.9697    0.0000 H   0  0  0  0  0  0  0  0  0  0  0  0
    9.0128    2.8033    0.0000 H   0  0  0  0  0  0  0  0  0  0  0  0
    8.1663    3.0317    0.0000 H   0  0  0  0  0  0  0  0  0  0  0  0
    7.9379    2.1851    0.0000 H   0  0  0  0  0  0  0  0  0  0  0  0
   11.3831    1.4790    0.0000 H   0  0  0  0  0  0  0  0  0  0  0  0
   12.1416    1.7240    0.0000 H   0  0  0  0  0  0  0  0  0  0  0  0
   10.8341   -0.4317    0.0000 H   0  0  0  0  0  0  0  0  0  0  0  0
   11.6532   -0.1189    0.0000 H   0  0  0  0  0  0  0  0  0  0  0  0
   11.3404    0.7002    0.0000 H   0  0  0  0  0  0  0  0  0  0  0  0
    7.4690   -2.6411    0.0000 H   0  0  0  0  0  0  0  0  0  0  0  0
    5.4641    0.3730    0.0000 H   0  0  0  0  0  0  0  0  0  0  0  0
    5.4641   -2.8670    0.0000 H   0  0  0  0  0  0  0  0  0  0  0  0
    4.0611   -0.4370    0.0000 H   0  0  0  0  0  0  0  0  0  0  0  0
    4.2690   -3.5570    0.0000 H   0  0  0  0  0  0  0  0  0  0  0  0
    2.8660   -1.1270    0.0000 H   0  0  0  0  0  0  0  0  0  0  0  0
    2.8660   -4.3670    0.0000 H   0  0  0  0  0  0  0  0  0  0  0  0
    1.4631   -1.9370    0.0000 H   0  0  0  0  0  0  0  0  0  0  0  0
    1.4631   -3.5570    0.0000 H   0  0  0  0  0  0  0  0  0  0  0  0
   13.6802    3.0458    0.0000 H   0  0  0  0  0  0  0  0  0  0  0  0
  1 18  2  0  0  0  0
  2 24  1  0  0  0  0
  2 51  1  0  0  0  0
  3 24  2  0  0  0  0
  4  8  1  0  0  0  0
  4  9  1  0  0  0  0
  4 32  1  0  0  0  0
  5 14  1  0  0  0  0
  5 18  1  0  0  0  0
  5 42  1  0  0  0  0
  6  7  1  0  0  0  0
  6  9  2  0  0  0  0
  6 10  1  0  0  0  0
  7  8  2  0  0  0  0
  7 15  1  0  0  0  0
  8 12  1  0  0  0  0
  9 17  1  0  0  0  0
 10 16  1  0  0  0  0
 10 30  1  0  0  0  0
 10 31  1  0  0  0  0
 11 12  2  0  0  0  0
 11 13  1  0  0  0  0
 11 18  1  0  0  0  0
 12 33  1  0  0  0  0
 13 14  2  0  0  0  0
 13 19  1  0  0  0  0
 14 20  1  0  0  0  0
 15 34  1  0  0  0  0
 15 35  1  0  0  0  0
 15 36  1  0  0  0  0
 16 24  1  0  0  0  0
 16 37  1  0  0  0  0
 16 38  1  0  0  0  0
 17 39  1  0  0  0  0
 17 40  1  0  0  0  0
 17 41  1  0  0  0  0
 19 22  2  0  0  0  0
 19 43  1  0  0  0  0
 20 21  2  0  0  0  0
 20 44  1  0  0  0  0
 21 22  1  0  0  0  0
 21 23  1  0  0  0  0
 22 45  1  0  0  0  0
 23 25  2  0  0  0  0
 23 26  1  0  0  0  0
 25 27  1  0  0  0  0
 25 46  1  0  0  0  0
 26 28  2  0  0  0  0
 26 47  1  0  0  0  0
 27 29  2  0  0  0  0
 27 48  1  0  0  0  0
 28 29  1  0  0  0  0
 28 49  1  0  0  0  0
 29 50  1  0  0  0  0
M  END
> <PUBCHEM_COMPOUND_CID>
5329150

> <PUBCHEM_COMPOUND_CANONICALIZED>
1

> <PUBCHEM_CACTVS_COMPLEXITY>
655

> <PUBCHEM_CACTVS_HBOND_ACCEPTOR>
3

> <PUBCHEM_CACTVS_HBOND_DONOR>
3

> <PUBCHEM_CACTVS_ROTATABLE_BOND>
5

> <PUBCHEM_CACTVS_SUBSKEYS>
AAADceB7MAAAAAAAAAAAAAAAAAAAAWLAAAAwYAAAAAAAAFgB0AAAHgAQCAAADAiBngAyyJLJkgCoAyXyXACCgCAhAiAImSEwZNgIIHLAlZGEYAhklADIyYec2fOewAAAQAACAACAAACAAAQAAAAAAAAAAA==

> <PUBCHEM_IUPAC_OPENEYE_NAME>
3-[2,4-dimethyl-5-[(Z)-(2-oxo-6-phenyl-indolin-3-ylidene)methyl]-1H-pyrrol-3-yl]propanoic acid

> <PUBCHEM_IUPAC_CAS_NAME>
3-[2,4-dimethyl-5-[(Z)-(2-oxo-6-phenyl-1H-indol-3-ylidene)methyl]-1H-pyrrol-3-yl]propanoic acid

> <PUBCHEM_IUPAC_NAME_MARKUP>
3-[2,4-dimethyl-5-[(<I>Z</I>)-(2-oxo-6-phenyl-1<I>H</I>-indol-3-ylidene)methyl]-1<I>H</I>-pyrrol-3-yl]propanoic acid

> <PUBCHEM_IUPAC_NAME>
3-[2,4-dimethyl-5-[(Z)-(2-oxo-6-phenyl-1H-indol-3-ylidene)methyl]-1H-pyrrol-3-yl]propanoic acid

> <PUBCHEM_IUPAC_SYSTEMATIC_NAME>
3-[2,4-dimethyl-5-[(Z)-(2-oxidanylidene-6-phenyl-1H-indol-3-ylidene)methyl]-1H-pyrrol-3-yl]propanoic acid

> <PUBCHEM_IUPAC_TRADITIONAL_NAME>
3-[5-[(Z)-(2-keto-6-phenyl-indolin-3-ylidene)methyl]-2,4-dimethyl-1H-pyrrol-3-yl]propionic acid

> <PUBCHEM_IUPAC_INCHI>
InChI=1S/C24H22N2O3/c1-14-18(10-11-23(27)28)15(2)25-21(14)13-20-19-9-8-17(12-22(19)26-24(20)29)16-6-4-3-5-7-16/h3-9,12-13,25H,10-11H2,1-2H3,(H,26,29)(H,27,28)/b20-13-

> <PUBCHEM_IUPAC_INCHIKEY>
APYYTEJNOZQZNA-MOSHPQCFSA-N

> <PUBCHEM_XLOGP3_AA>
3.9

> <PUBCHEM_EXACT_MASS>
386.16304257

> <PUBCHEM_MOLECULAR_FORMULA>
C24H22N2O3

> <PUBCHEM_MOLECULAR_WEIGHT>
386.4

> <PUBCHEM_OPENEYE_CAN_SMILES>
CC1=C(NC(=C1CCC(=O)O)C)C=C2C3=C(C=C(C=C3)C4=CC=CC=C4)NC2=O

> <PUBCHEM_OPENEYE_ISO_SMILES>
CC1=C(NC(=C1CCC(=O)O)C)/C=C\2/C3=C(C=C(C=C3)C4=CC=CC=C4)NC2=O

> <PUBCHEM_CACTVS_TPSA>
82.2

> <PUBCHEM_MONOISOTOPIC_WEIGHT>
386.16304257

> <PUBCHEM_TOTAL_CHARGE>
0

> <PUBCHEM_HEAVY_ATOM_COUNT>
29

> <PUBCHEM_ATOM_DEF_STEREO_COUNT>
0

> <PUBCHEM_ATOM_UDEF_STEREO_COUNT>
0

> <PUBCHEM_BOND_DEF_STEREO_COUNT>
1

> <PUBCHEM_BOND_UDEF_STEREO_COUNT>
0

> <PUBCHEM_ISOTOPIC_ATOM_COUNT>
0

> <PUBCHEM_COMPONENT_COUNT>
1

> <PUBCHEM_CACTVS_TAUTO_COUNT>
-1

> <PUBCHEM_COORDINATE_TYPE>
1
5
255

> <PUBCHEM_BONDANNOTATIONS>
13  14  8
13  19  8
14  20  8
19  22  8
20  21  8
21  22  8
23  25  8
23  26  8
25  27  8
26  28  8
27  29  8
28  29  8
4  8  8
4  9  8
6  7  8
6  9  8
7  8  8

$$$$
42642648
  -OEChem-11282412102D

 51 55  0     1  0  0  0  0  0999 V2000
   10.6209   -2.9170    0.0000 Cl  0  0  0  0  0  0  0  0  0  0  0  0
   15.0145   -1.5610    0.0000 S   0  0  0  0  0  0  0  0  0  0  0  0
    4.4727    2.6319    0.0000 O   0  0  0  0  0  0  0  0  0  0  0  0
   12.3644   -1.9371    0.0000 O   0  0  0  0  0  0  0  0  0  0  0  0
    3.6636    1.2306    0.0000 N   0  0  0  0  0  0  0  0  0  0  0  0
    5.4432    1.1374    0.0000 N   0  0  0  0  0  0  0  0  0  0  0  0
    8.9237    0.1028    0.0000 N   0  0  0  0  0  0  0  0  0  0  0  0
    8.9352    3.1720    0.0000 N   0  0  0  0  0  0  0  0  0  0  0  0
    9.8413    1.6166    0.0000 N   0  0  0  0  0  0  0  0  0  0  0  0
   14.1894   -2.9528    0.0000 N   0  0  0  0  0  0  0  0  0  0  0  0
    2.9945    1.9738    0.0000 C   0  0  1  0  0  0  0  0  0  0  0  0
    3.4945    2.8398    0.0000 C   0  0  0  0  0  0  0  0  0  0  0  0
    4.5772    1.6374    0.0000 C   0  0  0  0  0  0  0  0  0  0  0  0
    6.3092    1.6374    0.0000 C   0  0  0  0  0  0  0  0  0  0  0  0
    8.0413    1.6374    0.0000 C   0  0  0  0  0  0  0  0  0  0  0  0
    2.0000    1.8693    0.0000 C   0  0  0  0  0  0  0  0  0  0  0  0
    7.1753    1.1374    0.0000 C   0  0  0  0  0  0  0  0  0  0  0  0
    8.0413    2.6374    0.0000 C   0  0  0  0  0  0  0  0  0  0  0  0
    8.9352    1.1027    0.0000 C   0  0  0  0  0  0  0  0  0  0  0  0
    6.3092    2.6374    0.0000 C   0  0  0  0  0  0  0  0  0  0  0  0
    7.1753    3.1374    0.0000 C   0  0  0  0  0  0  0  0  0  0  0  0
    9.7839   -0.4072    0.0000 C   0  0  0  0  0  0  0  0  0  0  0  0
    9.7723   -1.4071    0.0000 C   0  0  0  0  0  0  0  0  0  0  0  0
   10.6556    0.0828    0.0000 C   0  0  0  0  0  0  0  0  0  0  0  0
    9.8413    2.6582    0.0000 C   0  0  0  0  0  0  0  0  0  0  0  0
   11.5042   -1.4272    0.0000 C   0  0  0  0  0  0  0  0  0  0  0  0
   10.6325   -1.9171    0.0000 C   0  0  0  0  0  0  0  0  0  0  0  0
   11.5158   -0.4272    0.0000 C   0  0  0  0  0  0  0  0  0  0  0  0
   13.2362   -1.4472    0.0000 C   0  0  0  0  0  0  0  0  0  0  0  0
   14.0964   -1.9572    0.0000 C   0  0  0  0  0  0  0  0  0  0  0  0
   15.6750   -2.3119    0.0000 C   0  0  0  0  0  0  0  0  0  0  0  0
   15.1651   -3.1720    0.0000 C   0  0  0  0  0  0  0  0  0  0  0  0
    2.7723    1.3950    0.0000 H   0  0  0  0  0  0  0  0  0  0  0  0
    3.6861    3.4295    0.0000 H   0  0  0  0  0  0  0  0  0  0  0  0
    2.9281    3.0920    0.0000 H   0  0  0  0  0  0  0  0  0  0  0  0
    1.9352    2.4859    0.0000 H   0  0  0  0  0  0  0  0  0  0  0  0
    1.3834    1.8044    0.0000 H   0  0  0  0  0  0  0  0  0  0  0  0
    2.0648    1.2526    0.0000 H   0  0  0  0  0  0  0  0  0  0  0  0
    5.4432    0.5174    0.0000 H   0  0  0  0  0  0  0  0  0  0  0  0
    7.1753    0.5174    0.0000 H   0  0  0  0  0  0  0  0  0  0  0  0
    5.7723    2.9474    0.0000 H   0  0  0  0  0  0  0  0  0  0  0  0
    7.1753    3.7574    0.0000 H   0  0  0  0  0  0  0  0  0  0  0  0
    8.3832   -0.2010    0.0000 H   0  0  0  0  0  0  0  0  0  0  0  0
    9.2318   -1.7109    0.0000 H   0  0  0  0  0  0  0  0  0  0  0  0
   10.6628    0.7027    0.0000 H   0  0  0  0  0  0  0  0  0  0  0  0
   10.3770    2.9703    0.0000 H   0  0  0  0  0  0  0  0  0  0  0  0
   12.0563   -0.1235    0.0000 H   0  0  0  0  0  0  0  0  0  0  0  0
   13.6402   -0.9769    0.0000 H   0  0  0  0  0  0  0  0  0  0  0  0
   12.8432   -0.9677    0.0000 H   0  0  0  0  0  0  0  0  0  0  0  0
   16.2923   -2.2542    0.0000 H   0  0  0  0  0  0  0  0  0  0  0  0
   15.4107   -3.7413    0.0000 H   0  0  0  0  0  0  0  0  0  0  0  0
  1 27  1  0  0  0  0
  2 30  1  0  0  0  0
  2 31  1  0  0  0  0
  3 12  1  0  0  0  0
  3 13  1  0  0  0  0
  4 26  1  0  0  0  0
  4 29  1  0  0  0  0
  5 11  1  0  0  0  0
  5 13  2  0  0  0  0
  6 13  1  0  0  0  0
  6 14  1  0  0  0  0
  6 39  1  0  0  0  0
  7 19  1  0  0  0  0
  7 22  1  0  0  0  0
  7 43  1  0  0  0  0
  8 18  1  0  0  0  0
  8 25  2  0  0  0  0
  9 19  2  0  0  0  0
  9 25  1  0  0  0  0
 10 30  2  0  0  0  0
 10 32  1  0  0  0  0
 11 12  1  0  0  0  0
 11 16  1  6  0  0  0
 11 33  1  0  0  0  0
 12 34  1  0  0  0  0
 12 35  1  0  0  0  0
 14 17  2  0  0  0  0
 14 20  1  0  0  0  0
 15 17  1  0  0  0  0
 15 18  2  0  0  0  0
 15 19  1  0  0  0  0
 16 36  1  0  0  0  0
 16 37  1  0  0  0  0
 16 38  1  0  0  0  0
 17 40  1  0  0  0  0
 18 21  1  0  0  0  0
 20 21  2  0  0  0  0
 20 41  1  0  0  0  0
 21 42  1  0  0  0  0
 22 23  2  0  0  0  0
 22 24  1  0  0  0  0
 23 27  1  0  0  0  0
 23 44  1  0  0  0  0
 24 28  2  0  0  0  0
 24 45  1  0  0  0  0
 25 46  1  0  0  0  0
 26 27  2  0  0  0  0
 26 28  1  0  0  0  0
 28 47  1  0  0  0  0
 29 30  1  0  0  0  0
 29 48  1  0  0  0  0
 29 49  1  0  0  0  0
 31 32  2  0  0  0  0
 31 50  1  0  0  0  0
 32 51  1  0  0  0  0
M  END
> <PUBCHEM_COMPOUND_CID>
42642648

> <PUBCHEM_COMPOUND_CANONICALIZED>
1

> <PUBCHEM_CACTVS_COMPLEXITY>
660

> <PUBCHEM_CACTVS_HBOND_ACCEPTOR>
8

> <PUBCHEM_CACTVS_HBOND_DONOR>
2

> <PUBCHEM_CACTVS_ROTATABLE_BOND>
7

> <PUBCHEM_CACTVS_SUBSKEYS>
AAADceB7sABEAAAAAAAAAAAAAAAAAWIAAAA8YIAAAAAAAACx/AAAHgYQAAAADC7l3ia/9/bIFAikAzZnZASC+KlxL/hJ2Cw+b5mOLuPF+9uPPCjs0BP46CewwAAOAECAQAICCAAAgQCABAQQAAAAAAAAAA==

> <PUBCHEM_IUPAC_OPENEYE_NAME>
N4-[3-chloro-4-(thiazol-2-ylmethoxy)phenyl]-N6-[(4R)-4-methyl-4,5-dihydrooxazol-2-yl]quinazoline-4,6-diamine

> <PUBCHEM_IUPAC_CAS_NAME>
N4-[3-chloro-4-(2-thiazolylmethoxy)phenyl]-N6-[(4R)-4-methyl-4,5-dihydrooxazol-2-yl]quinazoline-4,6-diamine

> <PUBCHEM_IUPAC_NAME_MARKUP>
4-<I>N</I>-[3-chloro-4-(1,3-thiazol-2-ylmethoxy)phenyl]-6-<I>N</I>-[(4<I>R</I>)-4-methyl-4,5-dihydro-1,3-oxazol-2-yl]quinazoline-4,6-diamine

> <PUBCHEM_IUPAC_NAME>
4-N-[3-chloro-4-(1,3-thiazol-2-ylmethoxy)phenyl]-6-N-[(4R)-4-methyl-4,5-dihydro-1,3-oxazol-2-yl]quinazoline-4,6-diamine

> <PUBCHEM_IUPAC_SYSTEMATIC_NAME>
N4-[3-chloranyl-4-(1,3-thiazol-2-ylmethoxy)phenyl]-N6-[(4R)-4-methyl-4,5-dihydro-1,3-oxazol-2-yl]quinazoline-4,6-diamine

> <PUBCHEM_IUPAC_TRADITIONAL_NAME>
[4-[3-chloro-4-(thiazol-2-ylmethoxy)anilino]quinazolin-6-yl]-[(4R)-4-methyl-2-oxazolin-2-yl]amine

> <PUBCHEM_IUPAC_INCHI>
InChI=1S/C22H19ClN6O2S/c1-13-10-31-22(27-13)29-14-2-4-18-16(8-14)21(26-12-25-18)28-15-3-5-19(17(23)9-15)30-11-20-24-6-7-32-20/h2-9,12-13H,10-11H2,1H3,(H,27,29)(H,25,26,28)/t13-/m1/s1

> <PUBCHEM_IUPAC_INCHIKEY>
UWXSAYUXVSFDBQ-CYBMUJFWSA-N

> <PUBCHEM_XLOGP3_AA>
4.2

> <PUBCHEM_EXACT_MASS>
466.0978727

> <PUBCHEM_MOLECULAR_FORMULA>
C22H19ClN6O2S

> <PUBCHEM_MOLECULAR_WEIGHT>
466.9

> <PUBCHEM_OPENEYE_CAN_SMILES>
CC1COC(=N1)NC2=CC3=C(C=C2)N=CN=C3NC4=CC(=C(C=C4)OCC5=NC=CS5)Cl

> <PUBCHEM_OPENEYE_ISO_SMILES>
C[C@@H]1COC(=N1)NC2=CC3=C(C=C2)N=CN=C3NC4=CC(=C(C=C4)OCC5=NC=CS5)Cl

> <PUBCHEM_CACTVS_TPSA>
122

> <PUBCHEM_MONOISOTOPIC_WEIGHT>
466.0978727

> <PUBCHEM_TOTAL_CHARGE>
0

> <PUBCHEM_HEAVY_ATOM_COUNT>
32

> <PUBCHEM_ATOM_DEF_STEREO_COUNT>
1

> <PUBCHEM_ATOM_UDEF_STEREO_COUNT>
0

> <PUBCHEM_BOND_DEF_STEREO_COUNT>
0

> <PUBCHEM_BOND_UDEF_STEREO_COUNT>
0

> <PUBCHEM_ISOTOPIC_ATOM_COUNT>
0

> <PUBCHEM_COMPONENT_COUNT>
1

> <PUBCHEM_CACTVS_TAUTO_COUNT>
-1

> <PUBCHEM_COORDINATE_TYPE>
1
5
255

> <PUBCHEM_BONDANNOTATIONS>
10  30  8
10  32  8
11  16  6
14  17  8
14  20  8
15  17  8
15  18  8
15  19  8
18  21  8
2  30  8
2  31  8
20  21  8
22  23  8
22  24  8
23  27  8
24  28  8
26  27  8
26  28  8
31  32  8
8  18  8
8  25  8
9  19  8
9  25  8

$$$$
44609731
  -OEChem-11282412102D

 52 54  0     0  0  0  0  0  0999 V2000
   11.6382    4.8642    0.0000 Cl  0  0  0  0  0  0  0  0  0  0  0  0
    3.7070    3.0747    0.0000 O   0  0  0  0  0  0  0  0  0  0  0  0
    1.9750    4.0747    0.0000 O   0  0  0  0  0  0  0  0  0  0  0  0
    1.9750    0.6106    0.0000 O   0  0  0  0  0  0  0  0  0  0  0  0
    0.9749    2.3426    0.0000 O   0  0  0  0  0  0  0  0  0  0  0  0
    6.4331    5.6411    0.0000 N   0  0  0  0  0  0  0  0  0  0  0  0
    3.7062    7.2288    0.0000 N   0  0  0  0  0  0  0  0  0  0  0  0
    5.5813    7.2360    0.0000 N   0  0  0  0  0  0  0  0  0  0  0  0
    4.6250    5.6231    0.0000 C   0  0  0  0  0  0  0  0  0  0  0  0
    3.7070    4.0747    0.0000 C   0  0  0  0  0  0  0  0  0  0  0  0
    2.8410    4.5747    0.0000 C   0  0  0  0  0  0  0  0  0  0  0  0
    3.7230    6.1439    0.0000 C   0  0  0  0  0  0  0  0  0  0  0  0
    4.6170    4.5815    0.0000 C   0  0  0  0  0  0  0  0  0  0  0  0
    2.8249    5.6162    0.0000 C   0  0  0  0  0  0  0  0  0  0  0  0
    5.5729    6.1511    0.0000 C   0  0  0  0  0  0  0  0  0  0  0  0
    3.3410    1.9766    0.0000 C   0  0  0  0  0  0  0  0  0  0  0  0
    0.9749    4.0747    0.0000 C   0  0  0  0  0  0  0  0  0  0  0  0
    2.4750    1.4766    0.0000 C   0  0  0  0  0  0  0  0  0  0  0  0
    0.4749    3.2087    0.0000 C   0  0  0  0  0  0  0  0  0  0  0  0
    0.9749    0.6106    0.0000 C   0  0  0  0  0  0  0  0  0  0  0  0
    0.4749    1.4766    0.0000 C   0  0  0  0  0  0  0  0  0  0  0  0
    7.3048    6.1310    0.0000 C   0  0  0  0  0  0  0  0  0  0  0  0
    4.6416    7.7785    0.0000 C   0  0  0  0  0  0  0  0  0  0  0  0
    7.3164    7.1310    0.0000 C   0  0  0  0  0  0  0  0  0  0  0  0
    8.1650    5.6211    0.0000 C   0  0  0  0  0  0  0  0  0  0  0  0
    8.1882    7.6209    0.0000 C   0  0  0  0  0  0  0  0  0  0  0  0
    9.0368    6.1110    0.0000 C   0  0  0  0  0  0  0  0  0  0  0  0
    9.0483    7.1110    0.0000 C   0  0  0  0  0  0  0  0  0  0  0  0
    8.1997    8.6209    0.0000 C   0  0  0  0  0  0  0  0  0  0  0  0
    8.2113    9.6208    0.0000 C   0  0  0  0  0  0  0  0  0  0  0  0
    5.1503    4.2653    0.0000 H   0  0  0  0  0  0  0  0  0  0  0  0
    2.2844    5.9200    0.0000 H   0  0  0  0  0  0  0  0  0  0  0  0
    3.4894    1.3746    0.0000 H   0  0  0  0  0  0  0  0  0  0  0  0
    3.9605    1.9518    0.0000 H   0  0  0  0  0  0  0  0  0  0  0  0
    1.0826    4.6853    0.0000 H   0  0  0  0  0  0  0  0  0  0  0  0
    0.3923    4.2867    0.0000 H   0  0  0  0  0  0  0  0  0  0  0  0
    2.3673    2.0872    0.0000 H   0  0  0  0  0  0  0  0  0  0  0  0
    2.9134    1.0382    0.0000 H   0  0  0  0  0  0  0  0  0  0  0  0
    0.0000    3.6072    0.0000 H   0  0  0  0  0  0  0  0  0  0  0  0
    0.0000    2.8101    0.0000 H   0  0  0  0  0  0  0  0  0  0  0  0
    0.3923    0.3985    0.0000 H   0  0  0  0  0  0  0  0  0  0  0  0
    1.0826    0.0000    0.0000 H   0  0  0  0  0  0  0  0  0  0  0  0
    0.0000    1.8751    0.0000 H   0  0  0  0  0  0  0  0  0  0  0  0
    0.0000    1.0781    0.0000 H   0  0  0  0  0  0  0  0  0  0  0  0
    6.4259    5.0211    0.0000 H   0  0  0  0  0  0  0  0  0  0  0  0
    4.6393    8.3985    0.0000 H   0  0  0  0  0  0  0  0  0  0  0  0
    6.7831    7.4472    0.0000 H   0  0  0  0  0  0  0  0  0  0  0  0
    8.1579    5.0011    0.0000 H   0  0  0  0  0  0  0  0  0  0  0  0
    9.5701    5.7948    0.0000 H   0  0  0  0  0  0  0  0  0  0  0  0
    9.5888    7.4147    0.0000 H   0  0  0  0  0  0  0  0  0  0  0  0
    8.2185   10.2408    0.0000 H   0  0  0  0  0  0  0  0  0  0  0  0
   12.6382    4.8642    0.0000 H   0  0  0  0  0  0  0  0  0  0  0  0
  1 52  1  0  0  0  0
  2 10  1  0  0  0  0
  2 16  1  0  0  0  0
  3 11  1  0  0  0  0
  3 17  1  0  0  0  0
  4 18  1  0  0  0  0
  4 20  1  0  0  0  0
  5 19  1  0  0  0  0
  5 21  1  0  0  0  0
  6 15  1  0  0  0  0
  6 22  1  0  0  0  0
  6 45  1  0  0  0  0
  7 12  1  0  0  0  0
  7 23  2  0  0  0  0
  8 15  2  0  0  0  0
  8 23  1  0  0  0  0
  9 12  1  0  0  0  0
  9 13  2  0  0  0  0
  9 15  1  0  0  0  0
 10 11  2  0  0  0  0
 10 13  1  0  0  0  0
 11 14  1  0  0  0  0
 12 14  2  0  0  0  0
 13 31  1  0  0  0  0
 14 32  1  0  0  0  0
 16 18  1  0  0  0  0
 16 33  1  0  0  0  0
 16 34  1  0  0  0  0
 17 19  1  0  0  0  0
 17 35  1  0  0  0  0
 17 36  1  0  0  0  0
 18 37  1  0  0  0  0
 18 38  1  0  0  0  0
 19 39  1  0  0  0  0
 19 40  1  0  0  0  0
 20 21  1  0  0  0  0
 20 41  1  0  0  0  0
 20 42  1  0  0  0  0
 21 43  1  0  0  0  0
 21 44  1  0  0  0  0
 22 24  1  0  0  0  0
 22 25  2  0  0  0  0
 23 46  1  0  0  0  0
 24 26  2  0  0  0  0
 24 47  1  0  0  0  0
 25 27  1  0  0  0  0
 25 48  1  0  0  0  0
 26 28  1  0  0  0  0
 26 29  1  0  0  0  0
 27 28  2  0  0  0  0
 27 49  1  0  0  0  0
 28 50  1  0  0  0  0
 29 30  3  0  0  0  0
 30 51  1  0  0  0  0
M  END
> <PUBCHEM_COMPOUND_CID>
44609731

> <PUBCHEM_COMPOUND_CANONICALIZED>
1

> <PUBCHEM_CACTVS_COMPLEXITY>
553

> <PUBCHEM_CACTVS_HBOND_ACCEPTOR>
7

> <PUBCHEM_CACTVS_HBOND_DONOR>
2

> <PUBCHEM_CACTVS_ROTATABLE_BOND>
3

> <PUBCHEM_CACTVS_SUBSKEYS>
AAADceB7OAAEAAAAAAAAAAAAAAAAAAAAAAA8YIAAAAAAAACx9AAAHgAQAAAADAyhngY19vbIFADgGyZjZAiCiCkxIqAJ2CA+7JiNLuLE+duGPCru0BvK6Cew0BMOIEABQgACQABAgAKEAASAAAAAAAAAAA==

> <PUBCHEM_IUPAC_OPENEYE_NAME>
N-(3-ethynylphenyl)-2,5,8,11-tetraoxa-15,17-diazatricyclo[10.8.0.014,19]icosa-1(12),13,15,17,19-pentaen-18-amine;hydrochloride

> <PUBCHEM_IUPAC_CAS_NAME>
N-(3-ethynylphenyl)-2,5,8,11-tetraoxa-15,17-diazatricyclo[10.8.0.014,19]eicosa-1(12),13,15,17,19-pentaen-18-amine;hydrochloride

> <PUBCHEM_IUPAC_NAME_MARKUP>
<I>N</I>-(3-ethynylphenyl)-2,5,8,11-tetraoxa-15,17-diazatricyclo[10.8.0.0<SUP>14,19</SUP>]icosa-1(12),13,15,17,19-pentaen-18-amine;hydrochloride

> <PUBCHEM_IUPAC_NAME>
N-(3-ethynylphenyl)-2,5,8,11-tetraoxa-15,17-diazatricyclo[10.8.0.014,19]icosa-1(12),13,15,17,19-pentaen-18-amine;hydrochloride

> <PUBCHEM_IUPAC_SYSTEMATIC_NAME>
N-(3-ethynylphenyl)-2,5,8,11-tetraoxa-15,17-diazatricyclo[10.8.0.014,19]icosa-1(12),13,15,17,19-pentaen-18-amine;hydrochloride

> <PUBCHEM_IUPAC_TRADITIONAL_NAME>
(3-ethynylphenyl)-(2,5,8,11-tetraoxa-15,17-diazatricyclo[10.8.0.014,19]eicosa-1(12),13,15,17,19-pentaen-18-yl)amine;hydrochloride

> <PUBCHEM_IUPAC_INCHI>
InChI=1S/C22H21N3O4.ClH/c1-2-16-4-3-5-17(12-16)25-22-18-13-20-21(14-19(18)23-15-24-22)29-11-9-27-7-6-26-8-10-28-20;/h1,3-5,12-15H,6-11H2,(H,23,24,25);1H

> <PUBCHEM_IUPAC_INCHIKEY>
PNNGXMJMUUJHAV-UHFFFAOYSA-N

> <PUBCHEM_EXACT_MASS>
427.1298839

> <PUBCHEM_MOLECULAR_FORMULA>
C22H22ClN3O4

> <PUBCHEM_MOLECULAR_WEIGHT>
427.9

> <PUBCHEM_OPENEYE_CAN_SMILES>
C#CC1=CC(=CC=C1)NC2=NC=NC3=CC4=C(C=C32)OCCOCCOCCO4.Cl

> <PUBCHEM_OPENEYE_ISO_SMILES>
C#CC1=CC(=CC=C1)NC2=NC=NC3=CC4=C(C=C32)OCCOCCOCCO4.Cl

> <PUBCHEM_CACTVS_TPSA>
74.7

> <PUBCHEM_MONOISOTOPIC_WEIGHT>
427.1298839

> <PUBCHEM_TOTAL_CHARGE>
0

> <PUBCHEM_HEAVY_ATOM_COUNT>
30

> <PUBCHEM_ATOM_DEF_STEREO_COUNT>
0

> <PUBCHEM_ATOM_UDEF_STEREO_COUNT>
0

> <PUBCHEM_BOND_DEF_STEREO_COUNT>
0

> <PUBCHEM_BOND_UDEF_STEREO_COUNT>
0

> <PUBCHEM_ISOTOPIC_ATOM_COUNT>
0

> <PUBCHEM_COMPONENT_COUNT>
2

> <PUBCHEM_CACTVS_TAUTO_COUNT>
-1

> <PUBCHEM_COORDINATE_TYPE>
1
5
255

> <PUBCHEM_BONDANNOTATIONS>
10  11  8
10  13  8
11  14  8
12  14  8
22  24  8
22  25  8
24  26  8
25  27  8
26  28  8
27  28  8
7  12  8
7  23  8
8  15  8
8  23  8
9  12  8
9  13  8
9  15  8

$$$$
67307512
  -OEChem-11282412102D

 81 83  0     0  0  0  0  0  0999 V2000
   12.6774    5.1116    0.0000 Cl  0  0  0  0  0  0  0  0  0  0  0  0
    5.7331    2.0369    0.0000 O   0  0  0  0  0  0  0  0  0  0  0  0
   12.6543    7.1114    0.0000 O   0  0  0  0  0  0  0  0  0  0  0  0
    4.8671    2.5369    0.0000 O   0  0  0  0  0  0  0  0  0  0  0  0
    9.8882   13.3796    0.0000 O   0  0  0  0  0  0  0  0  0  0  0  0
    6.4241   15.3796    0.0000 O   0  0  0  0  0  0  0  0  0  0  0  0
    8.1561   13.3796    0.0000 O   0  0  0  0  0  0  0  0  0  0  0  0
    7.2901   13.8796    0.0000 O   0  0  0  0  0  0  0  0  0  0  0  0
    9.2135    5.0715    0.0000 N   0  0  0  0  0  0  0  0  0  0  0  0
    9.2251    2.0023    0.0000 N   0  0  0  0  0  0  0  0  0  0  0  0
    5.7331    4.0369    0.0000 N   0  0  0  0  0  0  0  0  0  0  0  0
    1.4030    3.5369    0.0000 N   0  0  0  0  0  0  0  0  0  0  0  0
   11.8594    4.5644    0.0000 N   0  0  0  0  0  0  0  0  0  0  0  0
   14.3747    8.1314    0.0000 N   0  0  0  0  0  0  0  0  0  0  0  0
    8.3312    3.5369    0.0000 C   0  0  0  0  0  0  0  0  0  0  0  0
    9.2251    4.0716    0.0000 C   0  0  0  0  0  0  0  0  0  0  0  0
    8.3312    2.5369    0.0000 C   0  0  0  0  0  0  0  0  0  0  0  0
    7.4651    4.0369    0.0000 C   0  0  0  0  0  0  0  0  0  0  0  0
    6.5991    3.5369    0.0000 C   0  0  0  0  0  0  0  0  0  0  0  0
    6.5991    2.5369    0.0000 C   0  0  0  0  0  0  0  0  0  0  0  0
    7.4651    2.0369    0.0000 C   0  0  0  0  0  0  0  0  0  0  0  0
   10.1312    3.5578    0.0000 C   0  0  0  0  0  0  0  0  0  0  0  0
   10.0737    5.5815    0.0000 C   0  0  0  0  0  0  0  0  0  0  0  0
   10.1312    2.5161    0.0000 C   0  0  0  0  0  0  0  0  0  0  0  0
   10.9455    5.0916    0.0000 C   0  0  0  0  0  0  0  0  0  0  0  0
   10.0622    6.5814    0.0000 C   0  0  0  0  0  0  0  0  0  0  0  0
    5.7331    1.0369    0.0000 C   0  0  0  0  0  0  0  0  0  0  0  0
    4.8671    3.5369    0.0000 C   0  0  0  0  0  0  0  0  0  0  0  0
   11.7941    6.6015    0.0000 C   0  0  0  0  0  0  0  0  0  0  0  0
   11.8057    5.6015    0.0000 C   0  0  0  0  0  0  0  0  0  0  0  0
   10.9224    7.0914    0.0000 C   0  0  0  0  0  0  0  0  0  0  0  0
   10.9953    4.0611    0.0000 C   0  0  0  0  0  0  0  0  0  0  0  0
    4.0010    4.0369    0.0000 C   0  0  0  0  0  0  0  0  0  0  0  0
    2.2690    4.0369    0.0000 C   0  0  0  0  0  0  0  0  0  0  0  0
    4.8671    0.5369    0.0000 C   0  0  0  0  0  0  0  0  0  0  0  0
    3.1350    3.5369    0.0000 C   0  0  0  0  0  0  0  0  0  0  0  0
   12.6427    8.1114    0.0000 C   0  0  0  0  0  0  0  0  0  0  0  0
    0.5369    4.0369    0.0000 C   0  0  0  0  0  0  0  0  0  0  0  0
    1.4030    2.5369    0.0000 C   0  0  0  0  0  0  0  0  0  0  0  0
   13.5029    8.6214    0.0000 C   0  0  0  0  0  0  0  0  0  0  0  0
   13.4913    9.6213    0.0000 C   0  0  0  0  0  0  0  0  0  0  0  0
   14.3515   10.1313    0.0000 C   0  0  0  0  0  0  0  0  0  0  0  0
   15.2348    8.6414    0.0000 C   0  0  0  0  0  0  0  0  0  0  0  0
   15.2233    9.6413    0.0000 C   0  0  0  0  0  0  0  0  0  0  0  0
    9.0222   14.8796    0.0000 C   0  0  0  0  0  0  0  0  0  0  0  0
    8.1561   15.3796    0.0000 C   0  0  0  0  0  0  0  0  0  0  0  0
    9.0222   13.8796    0.0000 C   0  0  0  0  0  0  0  0  0  0  0  0
    7.2901   14.8796    0.0000 C   0  0  0  0  0  0  0  0  0  0  0  0
    7.4651    4.6569    0.0000 H   0  0  0  0  0  0  0  0  0  0  0  0
    7.4651    1.4169    0.0000 H   0  0  0  0  0  0  0  0  0  0  0  0
    8.6731    5.3753    0.0000 H   0  0  0  0  0  0  0  0  0  0  0  0
   10.6669    2.2040    0.0000 H   0  0  0  0  0  0  0  0  0  0  0  0
    5.7331    4.6569    0.0000 H   0  0  0  0  0  0  0  0  0  0  0  0
   10.9526    4.4716    0.0000 H   0  0  0  0  0  0  0  0  0  0  0  0
    9.5217    6.8852    0.0000 H   0  0  0  0  0  0  0  0  0  0  0  0
    5.9451    0.4543    0.0000 H   0  0  0  0  0  0  0  0  0  0  0  0
    6.3437    1.1446    0.0000 H   0  0  0  0  0  0  0  0  0  0  0  0
   10.9152    7.7114    0.0000 H   0  0  0  0  0  0  0  0  0  0  0  0
    4.0010    4.6569    0.0000 H   0  0  0  0  0  0  0  0  0  0  0  0
    2.6675    4.5119    0.0000 H   0  0  0  0  0  0  0  0  0  0  0  0
    1.8705    4.5119    0.0000 H   0  0  0  0  0  0  0  0  0  0  0  0
    4.5571    1.0739    0.0000 H   0  0  0  0  0  0  0  0  0  0  0  0
    4.3301    0.2269    0.0000 H   0  0  0  0  0  0  0  0  0  0  0  0
    5.1771    0.0000    0.0000 H   0  0  0  0  0  0  0  0  0  0  0  0
    3.1350    2.9169    0.0000 H   0  0  0  0  0  0  0  0  0  0  0  0
   12.4239    8.6915    0.0000 H   0  0  0  0  0  0  0  0  0  0  0  0
   12.0334    7.9967    0.0000 H   0  0  0  0  0  0  0  0  0  0  0  0
    0.8469    4.5739    0.0000 H   0  0  0  0  0  0  0  0  0  0  0  0
    0.0000    4.3469    0.0000 H   0  0  0  0  0  0  0  0  0  0  0  0
    0.2269    3.5000    0.0000 H   0  0  0  0  0  0  0  0  0  0  0  0
    0.7830    2.5369    0.0000 H   0  0  0  0  0  0  0  0  0  0  0  0
    1.4030    1.9169    0.0000 H   0  0  0  0  0  0  0  0  0  0  0  0
    2.0230    2.5369    0.0000 H   0  0  0  0  0  0  0  0  0  0  0  0
   12.9509    9.9251    0.0000 H   0  0  0  0  0  0  0  0  0  0  0  0
   14.3444   10.7512    0.0000 H   0  0  0  0  0  0  0  0  0  0  0  0
   15.7753    8.3376    0.0000 H   0  0  0  0  0  0  0  0  0  0  0  0
   15.7566    9.9575    0.0000 H   0  0  0  0  0  0  0  0  0  0  0  0
    9.5591   15.1896    0.0000 H   0  0  0  0  0  0  0  0  0  0  0  0
    8.1561   15.9996    0.0000 H   0  0  0  0  0  0  0  0  0  0  0  0
    9.8882   12.7596    0.0000 H   0  0  0  0  0  0  0  0  0  0  0  0
    5.8872   15.0696    0.0000 H   0  0  0  0  0  0  0  0  0  0  0  0
  1 30  1  0  0  0  0
  2 20  1  0  0  0  0
  2 27  1  0  0  0  0
  3 29  1  0  0  0  0
  3 37  1  0  0  0  0
  4 28  2  0  0  0  0
  5 47  1  0  0  0  0
  5 80  1  0  0  0  0
  6 48  1  0  0  0  0
  6 81  1  0  0  0  0
  7 47  2  0  0  0  0
  8 48  2  0  0  0  0
  9 16  1  0  0  0  0
  9 23  1  0  0  0  0
  9 51  1  0  0  0  0
 10 17  1  0  0  0  0
 10 24  2  0  0  0  0
 11 19  1  0  0  0  0
 11 28  1  0  0  0  0
 11 53  1  0  0  0  0
 12 34  1  0  0  0  0
 12 38  1  0  0  0  0
 12 39  1  0  0  0  0
 13 32  3  0  0  0  0
 14 40  1  0  0  0  0
 14 43  2  0  0  0  0
 15 16  1  0  0  0  0
 15 17  1  0  0  0  0
 15 18  2  0  0  0  0
 16 22  2  0  0  0  0
 17 21  2  0  0  0  0
 18 19  1  0  0  0  0
 18 49  1  0  0  0  0
 19 20  2  0  0  0  0
 20 21  1  0  0  0  0
 21 50  1  0  0  0  0
 22 24  1  0  0  0  0
 22 32  1  0  0  0  0
 23 25  2  0  0  0  0
 23 26  1  0  0  0  0
 24 52  1  0  0  0  0
 25 30  1  0  0  0  0
 25 54  1  0  0  0  0
 26 31  2  0  0  0  0
 26 55  1  0  0  0  0
 27 35  1  0  0  0  0
 27 56  1  0  0  0  0
 27 57  1  0  0  0  0
 28 33  1  0  0  0  0
 29 30  2  0  0  0  0
 29 31  1  0  0  0  0
 31 58  1  0  0  0  0
 33 36  2  0  0  0  0
 33 59  1  0  0  0  0
 34 36  1  0  0  0  0
 34 60  1  0  0  0  0
 34 61  1  0  0  0  0
 35 62  1  0  0  0  0
 35 63  1  0  0  0  0
 35 64  1  0  0  0  0
 36 65  1  0  0  0  0
 37 40  1  0  0  0  0
 37 66  1  0  0  0  0
 37 67  1  0  0  0  0
 38 68  1  0  0  0  0
 38 69  1  0  0  0  0
 38 70  1  0  0  0  0
 39 71  1  0  0  0  0
 39 72  1  0  0  0  0
 39 73  1  0  0  0  0
 40 41  2  0  0  0  0
 41 42  1  0  0  0  0
 41 74  1  0  0  0  0
 42 44  2  0  0  0  0
 42 75  1  0  0  0  0
 43 44  1  0  0  0  0
 43 76  1  0  0  0  0
 44 77  1  0  0  0  0
 45 46  2  0  0  0  0
 45 47  1  0  0  0  0
 45 78  1  0  0  0  0
 46 48  1  0  0  0  0
 46 79  1  0  0  0  0
M  END
> <PUBCHEM_COMPOUND_CID>
67307512

> <PUBCHEM_COMPOUND_CANONICALIZED>
1

> <PUBCHEM_CACTVS_COMPLEXITY>
1000

> <PUBCHEM_CACTVS_HBOND_ACCEPTOR>
12

> <PUBCHEM_CACTVS_HBOND_DONOR>
4

> <PUBCHEM_CACTVS_ROTATABLE_BOND>
13

> <PUBCHEM_CACTVS_SUBSKEYS>
AAADcfB/uAAEAAAAAAAAAAAAAAAAAAAAAAA8eIEAAAAAAACx/AAAHgIQCAAADA7hniY+zvPIFgC4BzX3XASiiCAxJ2AI2CA/b9gOpuPF89uHPCjm1BnY+Y+w0OMOIECAQgICGABAgQCEBAQwAAAAAAAAAA==

> <PUBCHEM_IUPAC_OPENEYE_NAME>
(E)-N-[4-[3-chloro-4-(2-pyridylmethoxy)anilino]-3-cyano-7-ethoxy-6-quinolyl]-4-(dimethylamino)but-2-enamide;maleic acid

> <PUBCHEM_IUPAC_CAS_NAME>
(Z)-2-butenedioic acid;(E)-N-[4-[3-chloro-4-(2-pyridinylmethoxy)anilino]-3-cyano-7-ethoxy-6-quinolinyl]-4-(dimethylamino)-2-butenamide

> <PUBCHEM_IUPAC_NAME_MARKUP>
(<I>Z</I>)-but-2-enedioic acid;(<I>E</I>)-<I>N</I>-[4-[3-chloro-4-(pyridin-2-ylmethoxy)anilino]-3-cyano-7-ethoxyquinolin-6-yl]-4-(dimethylamino)but-2-enamide

> <PUBCHEM_IUPAC_NAME>
(Z)-but-2-enedioic acid;(E)-N-[4-[3-chloro-4-(pyridin-2-ylmethoxy)anilino]-3-cyano-7-ethoxyquinolin-6-yl]-4-(dimethylamino)but-2-enamide

> <PUBCHEM_IUPAC_SYSTEMATIC_NAME>
(Z)-but-2-enedioic acid;(E)-N-[4-[[3-chloranyl-4-(pyridin-2-ylmethoxy)phenyl]amino]-3-cyano-7-ethoxy-quinolin-6-yl]-4-(dimethylamino)but-2-enamide

> <PUBCHEM_IUPAC_TRADITIONAL_NAME>
(E)-N-[4-[3-chloro-4-(2-pyridylmethoxy)anilino]-3-cyano-7-ethoxy-6-quinolyl]-4-(dimethylamino)but-2-enamide;maleic acid

> <PUBCHEM_IUPAC_INCHI>
InChI=1S/C30H29ClN6O3.C4H4O4/c1-4-39-28-16-25-23(15-26(28)36-29(38)9-7-13-37(2)3)30(20(17-32)18-34-25)35-21-10-11-27(24(31)14-21)40-19-22-8-5-6-12-33-22;5-3(6)1-2-4(7)8/h5-12,14-16,18H,4,13,19H2,1-3H3,(H,34,35)(H,36,38);1-2H,(H,5,6)(H,7,8)/b9-7+;2-1-

> <PUBCHEM_IUPAC_INCHIKEY>
VXZCUHNJXSIJIM-MEBGWEOYSA-N

> <PUBCHEM_EXACT_MASS>
672.2099251

> <PUBCHEM_MOLECULAR_FORMULA>
C34H33ClN6O7

> <PUBCHEM_MOLECULAR_WEIGHT>
673.1

> <PUBCHEM_OPENEYE_CAN_SMILES>
CCOC1=C(C=C2C(=C1)N=CC(=C2NC3=CC(=C(C=C3)OCC4=CC=CC=N4)Cl)C#N)NC(=O)C=CCN(C)C.C(=CC(=O)O)C(=O)O

> <PUBCHEM_OPENEYE_ISO_SMILES>
CCOC1=C(C=C2C(=C1)N=CC(=C2NC3=CC(=C(C=C3)OCC4=CC=CC=N4)Cl)C#N)NC(=O)/C=C/CN(C)C.C(=C\C(=O)O)\C(=O)O

> <PUBCHEM_CACTVS_TPSA>
187

> <PUBCHEM_MONOISOTOPIC_WEIGHT>
672.2099251

> <PUBCHEM_TOTAL_CHARGE>
0

> <PUBCHEM_HEAVY_ATOM_COUNT>
48

> <PUBCHEM_ATOM_DEF_STEREO_COUNT>
0

> <PUBCHEM_ATOM_UDEF_STEREO_COUNT>
0

> <PUBCHEM_BOND_DEF_STEREO_COUNT>
2

> <PUBCHEM_BOND_UDEF_STEREO_COUNT>
0

> <PUBCHEM_ISOTOPIC_ATOM_COUNT>
0

> <PUBCHEM_COMPONENT_COUNT>
2

> <PUBCHEM_CACTVS_TAUTO_COUNT>
-1

> <PUBCHEM_COORDINATE_TYPE>
1
5
255

> <PUBCHEM_BONDANNOTATIONS>
10  17  8
10  24  8
14  40  8
14  43  8
15  16  8
15  17  8
15  18  8
16  22  8
17  21  8
18  19  8
19  20  8
20  21  8
22  24  8
23  25  8
23  26  8
25  30  8
26  31  8
29  30  8
29  31  8
40  41  8
41  42  8
42  44  8
43  44  8

$$$$
78209992
  -OEChem-11282412102D

 55 58  0     1  0  0  0  0  0999 V2000
   11.5078   -3.5272    0.0000 Cl  0  0  0  0  0  0  0  0  0  0  0  0
    9.7875   -2.5072    0.0000 F   0  0  0  0  0  0  0  0  0  0  0  0
    6.3301    0.5272    0.0000 O   0  0  0  0  0  0  0  0  0  0  0  0
    5.4641    2.0272    0.0000 O   0  0  0  0  0  0  0  0  0  0  0  0
    6.3301    2.5272    0.0000 O   0  0  0  0  0  0  0  0  0  0  0  0
    4.5981    0.5272    0.0000 N   0  0  0  0  0  0  0  0  0  0  0  0
    2.8660   -0.4728    0.0000 N   0  0  3  0  0  0  0  0  0  0  0  0
    9.8106   -0.5074    0.0000 N   0  0  0  0  0  0  0  0  0  0  0  0
    9.8222    2.5619    0.0000 N   0  0  0  0  0  0  0  0  0  0  0  0
   10.7282    1.0064    0.0000 N   0  0  0  0  0  0  0  0  0  0  0  0
    3.7320    1.0272    0.0000 C   0  0  1  0  0  0  0  0  0  0  0  0
    2.8660    0.5272    0.0000 C   0  0  0  0  0  0  0  0  0  0  0  0
    4.5981   -0.4728    0.0000 C   0  0  0  0  0  0  0  0  0  0  0  0
    3.7320   -0.9728    0.0000 C   0  0  0  0  0  0  0  0  0  0  0  0
    3.7320    2.0272    0.0000 C   0  0  0  0  0  0  0  0  0  0  0  0
    2.0000   -0.9728    0.0000 C   0  0  0  0  0  0  0  0  0  0  0  0
    5.4641    1.0272    0.0000 C   0  0  0  0  0  0  0  0  0  0  0  0
    7.1962    1.0272    0.0000 C   0  0  0  0  0  0  0  0  0  0  0  0
    8.0622    0.5272    0.0000 C   0  0  0  0  0  0  0  0  0  0  0  0
    7.1962    2.0272    0.0000 C   0  0  0  0  0  0  0  0  0  0  0  0
    8.9282    1.0272    0.0000 C   0  0  0  0  0  0  0  0  0  0  0  0
    8.9282    2.0272    0.0000 C   0  0  0  0  0  0  0  0  0  0  0  0
    8.0622    2.5272    0.0000 C   0  0  0  0  0  0  0  0  0  0  0  0
    9.8222    0.4926    0.0000 C   0  0  0  0  0  0  0  0  0  0  0  0
   10.6708   -1.0174    0.0000 C   0  0  0  0  0  0  0  0  0  0  0  0
   10.7282    2.0480    0.0000 C   0  0  0  0  0  0  0  0  0  0  0  0
    6.3301    3.5272    0.0000 C   0  0  0  0  0  0  0  0  0  0  0  0
   10.6592   -2.0173    0.0000 C   0  0  0  0  0  0  0  0  0  0  0  0
   11.5425   -0.5274    0.0000 C   0  0  0  0  0  0  0  0  0  0  0  0
   11.5194   -2.5273    0.0000 C   0  0  0  0  0  0  0  0  0  0  0  0
   12.4027   -1.0374    0.0000 C   0  0  0  0  0  0  0  0  0  0  0  0
   12.3911   -2.0373    0.0000 C   0  0  0  0  0  0  0  0  0  0  0  0
    4.2690    1.3372    0.0000 H   0  0  0  0  0  0  0  0  0  0  0  0
    2.6540    1.1098    0.0000 H   0  0  0  0  0  0  0  0  0  0  0  0
    2.2554    0.4195    0.0000 H   0  0  0  0  0  0  0  0  0  0  0  0
    4.8101   -1.0554    0.0000 H   0  0  0  0  0  0  0  0  0  0  0  0
    5.2087   -0.3651    0.0000 H   0  0  0  0  0  0  0  0  0  0  0  0
    3.3335   -1.4477    0.0000 H   0  0  0  0  0  0  0  0  0  0  0  0
    4.1306   -1.4477    0.0000 H   0  0  0  0  0  0  0  0  0  0  0  0
    4.3520    2.0272    0.0000 H   0  0  0  0  0  0  0  0  0  0  0  0
    3.7320    2.6472    0.0000 H   0  0  0  0  0  0  0  0  0  0  0  0
    3.1120    2.0272    0.0000 H   0  0  0  0  0  0  0  0  0  0  0  0
    1.6900   -0.4359    0.0000 H   0  0  0  0  0  0  0  0  0  0  0  0
    1.4631   -1.2828    0.0000 H   0  0  0  0  0  0  0  0  0  0  0  0
    2.3100   -1.5097    0.0000 H   0  0  0  0  0  0  0  0  0  0  0  0
    8.0622   -0.0928    0.0000 H   0  0  0  0  0  0  0  0  0  0  0  0
    8.0622    3.1472    0.0000 H   0  0  0  0  0  0  0  0  0  0  0  0
    9.2701   -0.8112    0.0000 H   0  0  0  0  0  0  0  0  0  0  0  0
   11.2639    2.3601    0.0000 H   0  0  0  0  0  0  0  0  0  0  0  0
    6.9501    3.5272    0.0000 H   0  0  0  0  0  0  0  0  0  0  0  0
    6.3301    4.1472    0.0000 H   0  0  0  0  0  0  0  0  0  0  0  0
    5.7101    3.5272    0.0000 H   0  0  0  0  0  0  0  0  0  0  0  0
   11.5497    0.0925    0.0000 H   0  0  0  0  0  0  0  0  0  0  0  0
   12.9432   -0.7336    0.0000 H   0  0  0  0  0  0  0  0  0  0  0  0
   12.9245   -2.3535    0.0000 H   0  0  0  0  0  0  0  0  0  0  0  0
  1 30  1  0  0  0  0
  2 28  1  0  0  0  0
  3 17  1  0  0  0  0
  3 18  1  0  0  0  0
  4 17  2  0  0  0  0
  5 20  1  0  0  0  0
  5 27  1  0  0  0  0
  6 11  1  0  0  0  0
  6 13  1  0  0  0  0
  6 17  1  0  0  0  0
  7 12  1  0  0  0  0
  7 14  1  0  0  0  0
  7 16  1  0  0  0  0
  8 24  1  0  0  0  0
  8 25  1  0  0  0  0
  8 48  1  0  0  0  0
  9 22  1  0  0  0  0
  9 26  2  0  0  0  0
 10 24  2  0  0  0  0
 10 26  1  0  0  0  0
 11 12  1  0  0  0  0
 11 15  1  1  0  0  0
 11 33  1  0  0  0  0
 12 34  1  0  0  0  0
 12 35  1  0  0  0  0
 13 14  1  0  0  0  0
 13 36  1  0  0  0  0
 13 37  1  0  0  0  0
 14 38  1  0  0  0  0
 14 39  1  0  0  0  0
 15 40  1  0  0  0  0
 15 41  1  0  0  0  0
 15 42  1  0  0  0  0
 16 43  1  0  0  0  0
 16 44  1  0  0  0  0
 16 45  1  0  0  0  0
 18 19  1  0  0  0  0
 18 20  2  0  0  0  0
 19 21  2  0  0  0  0
 19 46  1  0  0  0  0
 20 23  1  0  0  0  0
 21 22  1  0  0  0  0
 21 24  1  0  0  0  0
 22 23  2  0  0  0  0
 23 47  1  0  0  0  0
 25 28  2  0  0  0  0
 25 29  1  0  0  0  0
 26 49  1  0  0  0  0
 27 50  1  0  0  0  0
 27 51  1  0  0  0  0
 27 52  1  0  0  0  0
 28 30  1  0  0  0  0
 29 31  2  0  0  0  0
 29 53  1  0  0  0  0
 30 32  2  0  0  0  0
 31 32  1  0  0  0  0
 31 54  1  0  0  0  0
 32 55  1  0  0  0  0
M  END
> <PUBCHEM_COMPOUND_CID>
78209992

> <PUBCHEM_COMPOUND_CANONICALIZED>
1

> <PUBCHEM_CACTVS_COMPLEXITY>
649

> <PUBCHEM_CACTVS_HBOND_ACCEPTOR>
8

> <PUBCHEM_CACTVS_HBOND_DONOR>
1

> <PUBCHEM_CACTVS_ROTATABLE_BOND>
5

> <PUBCHEM_CACTVS_SUBSKEYS>
AAADceB7sQAEAAAAAAAAAAAAAAAAAAAAAAA8eIEAAAAAAACx9AAAHwIQAAAADC7Bni43/vfIFACoAyZjfACCiCkxJ6AJ2CA+7piNbuLF+9ucNipu1hvK6Cew0BMOIEABAgICQABAgAIEBASAAAAAAAAAAA==

> <PUBCHEM_IUPAC_OPENEYE_NAME>
[4-(3-chloro-2-fluoro-anilino)-7-methoxy-quinazolin-6-yl] (2R)-2,4-dimethylpiperazine-1-carboxylate

> <PUBCHEM_IUPAC_CAS_NAME>
(2R)-2,4-dimethyl-1-piperazinecarboxylic acid [4-(3-chloro-2-fluoroanilino)-7-methoxy-6-quinazolinyl] ester

> <PUBCHEM_IUPAC_NAME_MARKUP>
[4-(3-chloro-2-fluoroanilino)-7-methoxyquinazolin-6-yl] (2<I>R</I>)-2,4-dimethylpiperazine-1-carboxylate

> <PUBCHEM_IUPAC_NAME>
[4-(3-chloro-2-fluoroanilino)-7-methoxyquinazolin-6-yl] (2R)-2,4-dimethylpiperazine-1-carboxylate

> <PUBCHEM_IUPAC_SYSTEMATIC_NAME>
[4-[(3-chloranyl-2-fluoranyl-phenyl)amino]-7-methoxy-quinazolin-6-yl] (2R)-2,4-dimethylpiperazine-1-carboxylate

> <PUBCHEM_IUPAC_TRADITIONAL_NAME>
(2R)-2,4-dimethylpiperazine-1-carboxylic acid [4-(3-chloro-2-fluoro-anilino)-7-methoxy-quinazolin-6-yl] ester

> <PUBCHEM_IUPAC_INCHI>
InChI=1S/C22H23ClFN5O3/c1-13-11-28(2)7-8-29(13)22(30)32-19-9-14-17(10-18(19)31-3)25-12-26-21(14)27-16-6-4-5-15(23)20(16)24/h4-6,9-10,12-13H,7-8,11H2,1-3H3,(H,25,26,27)/t13-/m1/s1

> <PUBCHEM_IUPAC_INCHIKEY>
MXDSJQHFFDGFDK-CYBMUJFWSA-N

> <PUBCHEM_XLOGP3_AA>
4.1

> <PUBCHEM_EXACT_MASS>
459.1473455

> <PUBCHEM_MOLECULAR_FORMULA>
C22H23ClFN5O3

> <PUBCHEM_MOLECULAR_WEIGHT>
459.9

> <PUBCHEM_OPENEYE_CAN_SMILES>
CC1CN(CCN1C(=O)OC2=C(C=C3C(=C2)C(=NC=N3)NC4=C(C(=CC=C4)Cl)F)OC)C

> <PUBCHEM_OPENEYE_ISO_SMILES>
C[C@@H]1CN(CCN1C(=O)OC2=C(C=C3C(=C2)C(=NC=N3)NC4=C(C(=CC=C4)Cl)F)OC)C

> <PUBCHEM_CACTVS_TPSA>
79.8

> <PUBCHEM_MONOISOTOPIC_WEIGHT>
459.1473455

> <PUBCHEM_TOTAL_CHARGE>
0

> <PUBCHEM_HEAVY_ATOM_COUNT>
32

> <PUBCHEM_ATOM_DEF_STEREO_COUNT>
1

> <PUBCHEM_ATOM_UDEF_STEREO_COUNT>
0

> <PUBCHEM_BOND_DEF_STEREO_COUNT>
0

> <PUBCHEM_BOND_UDEF_STEREO_COUNT>
0

> <PUBCHEM_ISOTOPIC_ATOM_COUNT>
0

> <PUBCHEM_COMPONENT_COUNT>
1

> <PUBCHEM_CACTVS_TAUTO_COUNT>
3

> <PUBCHEM_COORDINATE_TYPE>
1
5
255

> <PUBCHEM_BONDANNOTATIONS>
10  24  8
10  26  8
11  15  5
18  19  8
18  20  8
19  21  8
20  23  8
21  22  8
21  24  8
22  23  8
25  28  8
25  29  8
28  30  8
29  31  8
30  32  8
31  32  8
9  22  8
9  26  8

$$$$
146026179
  -OEChem-11282412102D

 96 98  0     1  0  0  0  0  0999 V2000
   13.1134    6.9514    0.0000 O   0  0  0  0  0  0  0  0  0  0  0  0
   14.8063    3.7680    0.0000 O   0  0  0  0  0  0  0  0  0  0  0  0
   13.5171    2.6112    0.0000 O   0  0  0  0  0  0  0  0  0  0  0  0
    9.1529    8.7719    0.0000 O   0  0  0  0  0  0  0  0  0  0  0  0
    4.8671    6.3719    0.0000 O   0  0  0  0  0  0  0  0  0  0  0  0
    0.5369    6.8719    0.0000 O   0  0  0  0  0  0  0  0  0  0  0  0
    4.0010    7.8719    0.0000 O   0  0  0  0  0  0  0  0  0  0  0  0
    1.4030    5.3719    0.0000 O   0  0  0  0  0  0  0  0  0  0  0  0
   12.3990   10.3410    0.0000 N   0  0  3  0  0  0  0  0  0  0  0  0
   11.8707    1.5398    0.0000 N   0  0  0  0  0  0  0  0  0  0  0  0
   14.6667   11.7040    0.0000 N   0  0  0  0  0  0  0  0  0  0  0  0
   11.1564    6.5390    0.0000 N   0  0  0  0  0  0  0  0  0  0  0  0
   11.5136    4.8441    0.0000 N   0  0  0  0  0  0  0  0  0  0  0  0
   10.4420    9.9286    0.0000 N   0  0  0  0  0  0  0  0  0  0  0  0
   12.8027    6.0009    0.0000 N   0  0  0  0  0  0  0  0  0  0  0  0
   10.9245    2.8446    0.0000 C   0  0  0  0  0  0  0  0  0  0  0  0
   11.8707    3.1493    0.0000 C   0  0  0  0  0  0  0  0  0  0  0  0
   13.3775   10.5473    0.0000 C   0  0  0  0  0  0  0  0  0  0  0  0
   10.9245    1.8446    0.0000 C   0  0  0  0  0  0  0  0  0  0  0  0
   12.0884    9.3905    0.0000 C   0  0  0  0  0  0  0  0  0  0  0  0
   13.6882   11.4978    0.0000 C   0  0  0  0  0  0  0  0  0  0  0  0
   12.4544    2.3446    0.0000 C   0  0  0  0  0  0  0  0  0  0  0  0
   12.1814    4.0998    0.0000 C   0  0  0  0  0  0  0  0  0  0  0  0
   11.1099    9.1843    0.0000 C   0  0  0  0  0  0  0  0  0  0  0  0
   11.4670    7.4895    0.0000 C   0  0  0  0  0  0  0  0  0  0  0  0
   12.7562    8.6462    0.0000 C   0  0  0  0  0  0  0  0  0  0  0  0
   10.0585    3.3446    0.0000 C   0  0  0  0  0  0  0  0  0  0  0  0
   12.4456    7.6957    0.0000 C   0  0  0  0  0  0  0  0  0  0  0  0
   10.0585    1.3446    0.0000 C   0  0  0  0  0  0  0  0  0  0  0  0
   10.7992    8.2338    0.0000 C   0  0  0  0  0  0  0  0  0  0  0  0
   11.7312   11.0853    0.0000 C   0  0  0  0  0  0  0  0  0  0  0  0
   13.1599    4.3060    0.0000 C   0  0  0  0  0  0  0  0  0  0  0  0
   12.1814    0.5893    0.0000 C   0  0  0  0  0  0  0  0  0  0  0  0
   11.8242    5.7946    0.0000 C   0  0  0  0  0  0  0  0  0  0  0  0
    9.1925    2.8446    0.0000 C   0  0  0  0  0  0  0  0  0  0  0  0
    9.1925    1.8446    0.0000 C   0  0  0  0  0  0  0  0  0  0  0  0
   14.9774   12.6545    0.0000 C   0  0  0  0  0  0  0  0  0  0  0  0
   15.3346   10.9597    0.0000 C   0  0  0  0  0  0  0  0  0  0  0  0
   13.4706    5.2566    0.0000 C   0  0  0  0  0  0  0  0  0  0  0  0
   13.8278    3.5617    0.0000 C   0  0  0  0  0  0  0  0  0  0  0  0
    9.4635    9.7224    0.0000 C   0  0  0  0  0  0  0  0  0  0  0  0
   15.4741    3.0237    0.0000 C   0  0  0  0  0  0  0  0  0  0  0  0
   14.0919    7.1576    0.0000 C   0  0  0  0  0  0  0  0  0  0  0  0
   16.4526    3.2299    0.0000 C   0  0  0  0  0  0  0  0  0  0  0  0
   15.1634    2.0731    0.0000 C   0  0  0  0  0  0  0  0  0  0  0  0
    8.7957   10.4667    0.0000 C   0  0  0  0  0  0  0  0  0  0  0  0
    7.8172   10.2605    0.0000 C   0  0  0  0  0  0  0  0  0  0  0  0
    3.1350    6.3719    0.0000 C   0  0  0  0  0  0  0  0  0  0  0  0
    2.2690    6.8719    0.0000 C   0  0  0  0  0  0  0  0  0  0  0  0
    4.0010    6.8719    0.0000 C   0  0  0  0  0  0  0  0  0  0  0  0
    1.4030    6.3719    0.0000 C   0  0  0  0  0  0  0  0  0  0  0  0
   13.3981    9.9276    0.0000 H   0  0  0  0  0  0  0  0  0  0  0  0
   13.9914   10.4599    0.0000 H   0  0  0  0  0  0  0  0  0  0  0  0
   13.6676   12.1174    0.0000 H   0  0  0  0  0  0  0  0  0  0  0  0
   13.0744   11.5851    0.0000 H   0  0  0  0  0  0  0  0  0  0  0  0
   13.0744    2.3446    0.0000 H   0  0  0  0  0  0  0  0  0  0  0  0
   13.3629    8.7741    0.0000 H   0  0  0  0  0  0  0  0  0  0  0  0
   10.0585    3.9646    0.0000 H   0  0  0  0  0  0  0  0  0  0  0  0
   10.0585    0.7246    0.0000 H   0  0  0  0  0  0  0  0  0  0  0  0
   10.1925    8.1059    0.0000 H   0  0  0  0  0  0  0  0  0  0  0  0
   12.1927   11.4994    0.0000 H   0  0  0  0  0  0  0  0  0  0  0  0
   11.3171   11.5468    0.0000 H   0  0  0  0  0  0  0  0  0  0  0  0
   11.2697   10.6713    0.0000 H   0  0  0  0  0  0  0  0  0  0  0  0
   11.5921    0.3967    0.0000 H   0  0  0  0  0  0  0  0  0  0  0  0
   12.3740    0.0000    0.0000 H   0  0  0  0  0  0  0  0  0  0  0  0
   12.7707    0.7819    0.0000 H   0  0  0  0  0  0  0  0  0  0  0  0
   10.5497    6.4111    0.0000 H   0  0  0  0  0  0  0  0  0  0  0  0
    8.6555    3.1546    0.0000 H   0  0  0  0  0  0  0  0  0  0  0  0
    8.6555    1.5346    0.0000 H   0  0  0  0  0  0  0  0  0  0  0  0
   10.6346   10.5179    0.0000 H   0  0  0  0  0  0  0  0  0  0  0  0
   15.5667   12.4619    0.0000 H   0  0  0  0  0  0  0  0  0  0  0  0
   15.1700   13.2438    0.0000 H   0  0  0  0  0  0  0  0  0  0  0  0
   14.3880   12.8471    0.0000 H   0  0  0  0  0  0  0  0  0  0  0  0
   14.8731   10.5456    0.0000 H   0  0  0  0  0  0  0  0  0  0  0  0
   15.7486   10.4982    0.0000 H   0  0  0  0  0  0  0  0  0  0  0  0
   15.7960   11.3738    0.0000 H   0  0  0  0  0  0  0  0  0  0  0  0
   14.0773    5.3844    0.0000 H   0  0  0  0  0  0  0  0  0  0  0  0
   15.6667    3.6130    0.0000 H   0  0  0  0  0  0  0  0  0  0  0  0
   14.2198    6.5509    0.0000 H   0  0  0  0  0  0  0  0  0  0  0  0
   14.6986    7.2855    0.0000 H   0  0  0  0  0  0  0  0  0  0  0  0
   13.9640    7.7643    0.0000 H   0  0  0  0  0  0  0  0  0  0  0  0
   16.5805    2.6232    0.0000 H   0  0  0  0  0  0  0  0  0  0  0  0
   17.0593    3.3577    0.0000 H   0  0  0  0  0  0  0  0  0  0  0  0
   16.3248    3.8366    0.0000 H   0  0  0  0  0  0  0  0  0  0  0  0
   14.5741    2.2658    0.0000 H   0  0  0  0  0  0  0  0  0  0  0  0
   14.9708    1.4838    0.0000 H   0  0  0  0  0  0  0  0  0  0  0  0
   15.7528    1.8805    0.0000 H   0  0  0  0  0  0  0  0  0  0  0  0
    8.9883   11.0560    0.0000 H   0  0  0  0  0  0  0  0  0  0  0  0
    7.4031   10.7219    0.0000 H   0  0  0  0  0  0  0  0  0  0  0  0
    7.6246    9.6711    0.0000 H   0  0  0  0  0  0  0  0  0  0  0  0
    2.7365    5.8970    0.0000 H   0  0  0  0  0  0  0  0  0  0  0  0
    3.5335    5.8970    0.0000 H   0  0  0  0  0  0  0  0  0  0  0  0
    2.6675    7.3469    0.0000 H   0  0  0  0  0  0  0  0  0  0  0  0
    1.8705    7.3469    0.0000 H   0  0  0  0  0  0  0  0  0  0  0  0
    5.4040    6.6819    0.0000 H   0  0  0  0  0  0  0  0  0  0  0  0
    0.0000    6.5619    0.0000 H   0  0  0  0  0  0  0  0  0  0  0  0
  1 28  1  0  0  0  0
  1 43  1  0  0  0  0
  2 40  1  0  0  0  0
  2 42  1  0  0  0  0
  3 40  2  0  0  0  0
  4 41  2  0  0  0  0
  5 50  1  0  0  0  0
  5 95  1  0  0  0  0
  6 51  1  0  0  0  0
  6 96  1  0  0  0  0
  7 50  2  0  0  0  0
  8 51  2  0  0  0  0
  9 18  1  0  0  0  0
  9 20  1  0  0  0  0
  9 31  1  0  0  0  0
 10 19  1  0  0  0  0
 10 22  1  0  0  0  0
 10 33  1  0  0  0  0
 11 21  1  0  0  0  0
 11 37  1  0  0  0  0
 11 38  1  0  0  0  0
 12 25  1  0  0  0  0
 12 34  1  0  0  0  0
 12 67  1  0  0  0  0
 13 23  2  0  0  0  0
 13 34  1  0  0  0  0
 14 24  1  0  0  0  0
 14 41  1  0  0  0  0
 14 70  1  0  0  0  0
 15 34  2  0  0  0  0
 15 39  1  0  0  0  0
 16 17  1  0  0  0  0
 16 19  1  0  0  0  0
 16 27  2  0  0  0  0
 17 22  2  0  0  0  0
 17 23  1  0  0  0  0
 18 21  1  0  0  0  0
 18 52  1  0  0  0  0
 18 53  1  0  0  0  0
 19 29  2  0  0  0  0
 20 24  1  0  0  0  0
 20 26  2  0  0  0  0
 21 54  1  0  0  0  0
 21 55  1  0  0  0  0
 22 56  1  0  0  0  0
 23 32  1  0  0  0  0
 24 30  2  0  0  0  0
 25 28  2  0  0  0  0
 25 30  1  0  0  0  0
 26 28  1  0  0  0  0
 26 57  1  0  0  0  0
 27 35  1  0  0  0  0
 27 58  1  0  0  0  0
 29 36  1  0  0  0  0
 29 59  1  0  0  0  0
 30 60  1  0  0  0  0
 31 61  1  0  0  0  0
 31 62  1  0  0  0  0
 31 63  1  0  0  0  0
 32 39  2  0  0  0  0
 32 40  1  0  0  0  0
 33 64  1  0  0  0  0
 33 65  1  0  0  0  0
 33 66  1  0  0  0  0
 35 36  2  0  0  0  0
 35 68  1  0  0  0  0
 36 69  1  0  0  0  0
 37 71  1  0  0  0  0
 37 72  1  0  0  0  0
 37 73  1  0  0  0  0
 38 74  1  0  0  0  0
 38 75  1  0  0  0  0
 38 76  1  0  0  0  0
 39 77  1  0  0  0  0
 41 46  1  0  0  0  0
 42 44  1  0  0  0  0
 42 45  1  0  0  0  0
 42 78  1  0  0  0  0
 43 79  1  0  0  0  0
 43 80  1  0  0  0  0
 43 81  1  0  0  0  0
 44 82  1  0  0  0  0
 44 83  1  0  0  0  0
 44 84  1  0  0  0  0
 45 85  1  0  0  0  0
 45 86  1  0  0  0  0
 45 87  1  0  0  0  0
 46 47  2  0  0  0  0
 46 88  1  0  0  0  0
 47 89  1  0  0  0  0
 47 90  1  0  0  0  0
 48 49  1  0  0  0  0
 48 50  1  0  0  0  0
 48 91  1  0  0  0  0
 48 92  1  0  0  0  0
 49 51  1  0  0  0  0
 49 93  1  0  0  0  0
 49 94  1  0  0  0  0
M  END
> <PUBCHEM_COMPOUND_CID>
146026179

> <PUBCHEM_COMPOUND_CANONICALIZED>
1

> <PUBCHEM_CACTVS_COMPLEXITY>
1030

> <PUBCHEM_CACTVS_HBOND_ACCEPTOR>
13

> <PUBCHEM_CACTVS_HBOND_DONOR>
4

> <PUBCHEM_CACTVS_ROTATABLE_BOND>
16

> <PUBCHEM_CACTVS_SUBSKEYS>
AAADcfB/vAAAAAAAAAAAAAAAAAAAAWAAAAA8YIAAAAAAAFgB/AAAHgAQCAAADBzhngY/3vfMFgCoAzX3fACCiCk1IqAJ2CE/fNiObvrE+duXdahu1BvY6ef72fOOgECAAgQCECAAgQAECAQgQAAAAAAAAA==

> <PUBCHEM_IUPAC_OPENEYE_NAME>
isopropyl 2-[4-[2-(dimethylamino)ethyl-methyl-amino]-2-methoxy-5-(prop-2-enoylamino)anilino]-4-(1-methylindol-3-yl)pyrimidine-5-carboxylate;succinic acid

> <PUBCHEM_IUPAC_CAS_NAME>
butanedioic acid;2-[4-[2-(dimethylamino)ethyl-methylamino]-2-methoxy-5-(1-oxoprop-2-enylamino)anilino]-4-(1-methyl-3-indolyl)-5-pyrimidinecarboxylic acid propan-2-yl ester

> <PUBCHEM_IUPAC_NAME_MARKUP>
butanedioic acid;propan-2-yl 2-[4-[2-(dimethylamino)ethyl-methylamino]-2-methoxy-5-(prop-2-enoylamino)anilino]-4-(1-methylindol-3-yl)pyrimidine-5-carboxylate

> <PUBCHEM_IUPAC_NAME>
butanedioic acid;propan-2-yl 2-[4-[2-(dimethylamino)ethyl-methylamino]-2-methoxy-5-(prop-2-enoylamino)anilino]-4-(1-methylindol-3-yl)pyrimidine-5-carboxylate

> <PUBCHEM_IUPAC_SYSTEMATIC_NAME>
butanedioic acid;propan-2-yl 2-[[4-[2-(dimethylamino)ethyl-methyl-amino]-2-methoxy-5-(prop-2-enoylamino)phenyl]amino]-4-(1-methylindol-3-yl)pyrimidine-5-carboxylate

> <PUBCHEM_IUPAC_TRADITIONAL_NAME>
2-[5-acrylamido-4-[2-(dimethylamino)ethyl-methyl-amino]-2-methoxy-anilino]-4-(1-methylindol-3-yl)pyrimidine-5-carboxylic acid isopropyl ester;succinic acid

> <PUBCHEM_IUPAC_INCHI>
InChI=1S/C32H39N7O4.C4H6O4/c1-9-29(40)34-24-16-25(28(42-8)17-27(24)38(6)15-14-37(4)5)35-32-33-18-22(31(41)43-20(2)3)30(36-32)23-19-39(7)26-13-11-10-12-21(23)26;5-3(6)1-2-4(7)8/h9-13,16-20H,1,14-15H2,2-8H3,(H,34,40)(H,33,35,36);1-2H2,(H,5,6)(H,7,8)

> <PUBCHEM_IUPAC_INCHIKEY>
YXYAEUMTJQGKHS-UHFFFAOYSA-N

> <PUBCHEM_EXACT_MASS>
703.33296142

> <PUBCHEM_MOLECULAR_FORMULA>
C36H45N7O8

> <PUBCHEM_MOLECULAR_WEIGHT>
703.8

> <PUBCHEM_OPENEYE_CAN_SMILES>
CC(C)OC(=O)C1=CN=C(N=C1C2=CN(C3=CC=CC=C32)C)NC4=C(C=C(C(=C4)NC(=O)C=C)N(C)CCN(C)C)OC.C(CC(=O)O)C(=O)O

> <PUBCHEM_OPENEYE_ISO_SMILES>
CC(C)OC(=O)C1=CN=C(N=C1C2=CN(C3=CC=CC=C32)C)NC4=C(C=C(C(=C4)NC(=O)C=C)N(C)CCN(C)C)OC.C(CC(=O)O)C(=O)O

> <PUBCHEM_CACTVS_TPSA>
188

> <PUBCHEM_MONOISOTOPIC_WEIGHT>
703.33296142

> <PUBCHEM_TOTAL_CHARGE>
0

> <PUBCHEM_HEAVY_ATOM_COUNT>
51

> <PUBCHEM_ATOM_DEF_STEREO_COUNT>
0

> <PUBCHEM_ATOM_UDEF_STEREO_COUNT>
0

> <PUBCHEM_BOND_DEF_STEREO_COUNT>
0

> <PUBCHEM_BOND_UDEF_STEREO_COUNT>
0

> <PUBCHEM_ISOTOPIC_ATOM_COUNT>
0

> <PUBCHEM_COMPONENT_COUNT>
2

> <PUBCHEM_CACTVS_TAUTO_COUNT>
-1

> <PUBCHEM_COORDINATE_TYPE>
1
5
255

> <PUBCHEM_BONDANNOTATIONS>
10  19  8
10  22  8
13  23  8
13  34  8
15  34  8
15  39  8
16  17  8
16  19  8
16  27  8
17  22  8
19  29  8
20  24  8
20  26  8
23  32  8
24  30  8
25  28  8
25  30  8
26  28  8
27  35  8
29  36  8
32  39  8
35  36  8

$$$$
138678712
  -OEChem-11282412102D

 86 90  0     1  0  0  0  0  0999 V2000
    8.9282    5.5000    0.0000 Cl  0  0  0  0  0  0  0  0  0  0  0  0
   10.6603    2.5000    0.0000 S   0  0  0  0  0  0  0  0  0  0  0  0
    5.4641   -5.5000    0.0000 O   0  0  0  0  0  0  0  0  0  0  0  0
    3.7320    2.5000    0.0000 O   0  0  0  0  0  0  0  0  0  0  0  0
   11.6603    2.5000    0.0000 O   0  0  0  0  0  0  0  0  0  0  0  0
    9.6602    2.5000    0.0000 O   0  0  0  0  0  0  0  0  0  0  0  0
    5.4641   -2.5000    0.0000 N   0  0  3  0  0  0  0  0  0  0  0  0
    5.4641    3.5000    0.0000 N   0  0  0  0  0  0  0  0  0  0  0  0
    8.9282    3.5000    0.0000 N   0  0  0  0  0  0  0  0  0  0  0  0
    7.1962    3.5000    0.0000 N   0  0  0  0  0  0  0  0  0  0  0  0
    6.3301    5.0000    0.0000 N   0  0  0  0  0  0  0  0  0  0  0  0
    5.4641   -3.5000    0.0000 C   0  0  0  0  0  0  0  0  0  0  0  0
    6.3301   -4.0000    0.0000 C   0  0  0  0  0  0  0  0  0  0  0  0
    4.5981   -4.0000    0.0000 C   0  0  0  0  0  0  0  0  0  0  0  0
    6.3301   -2.0000    0.0000 C   0  0  0  0  0  0  0  0  0  0  0  0
    4.5981   -2.0000    0.0000 C   0  0  0  0  0  0  0  0  0  0  0  0
    6.3301   -1.0000    0.0000 C   0  0  0  0  0  0  0  0  0  0  0  0
    6.3301   -5.0000    0.0000 C   0  0  0  0  0  0  0  0  0  0  0  0
    4.5981   -5.0000    0.0000 C   0  0  0  0  0  0  0  0  0  0  0  0
    5.4641   -0.5000    0.0000 C   0  0  0  0  0  0  0  0  0  0  0  0
    4.5981   -1.0000    0.0000 C   0  0  0  0  0  0  0  0  0  0  0  0
    5.4641    0.5000    0.0000 C   0  0  0  0  0  0  0  0  0  0  0  0
    6.3301    1.0000    0.0000 C   0  0  0  0  0  0  0  0  0  0  0  0
    4.5981    1.0000    0.0000 C   0  0  0  0  0  0  0  0  0  0  0  0
    4.5981    2.0000    0.0000 C   0  0  0  0  0  0  0  0  0  0  0  0
    6.3301    2.0000    0.0000 C   0  0  0  0  0  0  0  0  0  0  0  0
    5.4641    2.5000    0.0000 C   0  0  0  0  0  0  0  0  0  0  0  0
    7.1962    0.5000    0.0000 C   0  0  0  0  0  0  0  0  0  0  0  0
    2.8660    2.0000    0.0000 C   0  0  0  0  0  0  0  0  0  0  0  0
   10.6603    1.5000    0.0000 C   0  0  0  0  0  0  0  0  0  0  0  0
    6.3301    4.0000    0.0000 C   0  0  0  0  0  0  0  0  0  0  0  0
   10.6603    3.5000    0.0000 C   0  0  0  0  0  0  0  0  0  0  0  0
    2.0000    2.5000    0.0000 C   0  0  0  0  0  0  0  0  0  0  0  0
    2.8660    1.0000    0.0000 C   0  0  0  0  0  0  0  0  0  0  0  0
    9.7942    4.0000    0.0000 C   0  0  0  0  0  0  0  0  0  0  0  0
   11.5263    1.0000    0.0000 C   0  0  0  0  0  0  0  0  0  0  0  0
    9.7942    1.0000    0.0000 C   0  0  0  0  0  0  0  0  0  0  0  0
   11.5263    4.0000    0.0000 C   0  0  0  0  0  0  0  0  0  0  0  0
    8.0622    4.0000    0.0000 C   0  0  0  0  0  0  0  0  0  0  0  0
    9.7942    5.0000    0.0000 C   0  0  0  0  0  0  0  0  0  0  0  0
   11.5263    5.0000    0.0000 C   0  0  0  0  0  0  0  0  0  0  0  0
   10.6603    5.5000    0.0000 C   0  0  0  0  0  0  0  0  0  0  0  0
    8.0622    5.0000    0.0000 C   0  0  0  0  0  0  0  0  0  0  0  0
    7.1962    5.5000    0.0000 C   0  0  0  0  0  0  0  0  0  0  0  0
    6.0010   -3.1900    0.0000 H   0  0  0  0  0  0  0  0  0  0  0  0
    6.9407   -4.1077    0.0000 H   0  0  0  0  0  0  0  0  0  0  0  0
    6.5422   -3.4174    0.0000 H   0  0  0  0  0  0  0  0  0  0  0  0
    4.3860   -3.4174    0.0000 H   0  0  0  0  0  0  0  0  0  0  0  0
    3.9875   -4.1077    0.0000 H   0  0  0  0  0  0  0  0  0  0  0  0
    6.5422   -2.5826    0.0000 H   0  0  0  0  0  0  0  0  0  0  0  0
    6.9407   -1.8923    0.0000 H   0  0  0  0  0  0  0  0  0  0  0  0
    3.9875   -1.8923    0.0000 H   0  0  0  0  0  0  0  0  0  0  0  0
    4.3860   -2.5826    0.0000 H   0  0  0  0  0  0  0  0  0  0  0  0
    6.9407   -1.1077    0.0000 H   0  0  0  0  0  0  0  0  0  0  0  0
    6.5422   -0.4174    0.0000 H   0  0  0  0  0  0  0  0  0  0  0  0
    6.5422   -5.5826    0.0000 H   0  0  0  0  0  0  0  0  0  0  0  0
    6.9407   -4.8923    0.0000 H   0  0  0  0  0  0  0  0  0  0  0  0
    3.9875   -4.8923    0.0000 H   0  0  0  0  0  0  0  0  0  0  0  0
    4.3860   -5.5826    0.0000 H   0  0  0  0  0  0  0  0  0  0  0  0
    4.0611   -0.6900    0.0000 H   0  0  0  0  0  0  0  0  0  0  0  0
    4.0611    0.6900    0.0000 H   0  0  0  0  0  0  0  0  0  0  0  0
    6.8671    2.3100    0.0000 H   0  0  0  0  0  0  0  0  0  0  0  0
    6.8862   -0.0369    0.0000 H   0  0  0  0  0  0  0  0  0  0  0  0
    7.7331    0.1900    0.0000 H   0  0  0  0  0  0  0  0  0  0  0  0
    7.5062    1.0369    0.0000 H   0  0  0  0  0  0  0  0  0  0  0  0
    4.9272    3.8100    0.0000 H   0  0  0  0  0  0  0  0  0  0  0  0
    2.8660    2.6200    0.0000 H   0  0  0  0  0  0  0  0  0  0  0  0
   11.1972    1.8100    0.0000 H   0  0  0  0  0  0  0  0  0  0  0  0
    2.3100    3.0369    0.0000 H   0  0  0  0  0  0  0  0  0  0  0  0
    1.4631    2.8100    0.0000 H   0  0  0  0  0  0  0  0  0  0  0  0
    1.6900    1.9631    0.0000 H   0  0  0  0  0  0  0  0  0  0  0  0
    2.2460    1.0000    0.0000 H   0  0  0  0  0  0  0  0  0  0  0  0
    2.8660    0.3800    0.0000 H   0  0  0  0  0  0  0  0  0  0  0  0
    3.4860    1.0000    0.0000 H   0  0  0  0  0  0  0  0  0  0  0  0
   11.2163    0.4631    0.0000 H   0  0  0  0  0  0  0  0  0  0  0  0
   12.0632    0.6900    0.0000 H   0  0  0  0  0  0  0  0  0  0  0  0
   11.8363    1.5369    0.0000 H   0  0  0  0  0  0  0  0  0  0  0  0
    9.4842    1.5369    0.0000 H   0  0  0  0  0  0  0  0  0  0  0  0
    9.2573    0.6900    0.0000 H   0  0  0  0  0  0  0  0  0  0  0  0
   10.1042    0.4631    0.0000 H   0  0  0  0  0  0  0  0  0  0  0  0
   12.0632    3.6900    0.0000 H   0  0  0  0  0  0  0  0  0  0  0  0
    8.9282    2.8800    0.0000 H   0  0  0  0  0  0  0  0  0  0  0  0
    9.2573    5.3100    0.0000 H   0  0  0  0  0  0  0  0  0  0  0  0
   12.0632    5.3100    0.0000 H   0  0  0  0  0  0  0  0  0  0  0  0
   10.6603    6.1200    0.0000 H   0  0  0  0  0  0  0  0  0  0  0  0
    7.1962    6.1200    0.0000 H   0  0  0  0  0  0  0  0  0  0  0  0
  1 43  1  0  0  0  0
  2  5  2  0  0  0  0
  2  6  2  0  0  0  0
  2 30  1  0  0  0  0
  2 32  1  0  0  0  0
  3 18  1  0  0  0  0
  3 19  1  0  0  0  0
  4 25  1  0  0  0  0
  4 29  1  0  0  0  0
  7 12  1  0  0  0  0
  7 15  1  0  0  0  0
  7 16  1  0  0  0  0
  8 27  1  0  0  0  0
  8 31  1  0  0  0  0
  8 66  1  0  0  0  0
  9 35  1  0  0  0  0
  9 39  1  0  0  0  0
  9 82  1  0  0  0  0
 10 31  1  0  0  0  0
 10 39  2  0  0  0  0
 11 31  2  0  0  0  0
 11 44  1  0  0  0  0
 12 13  1  0  0  0  0
 12 14  1  0  0  0  0
 12 45  1  0  0  0  0
 13 18  1  0  0  0  0
 13 46  1  0  0  0  0
 13 47  1  0  0  0  0
 14 19  1  0  0  0  0
 14 48  1  0  0  0  0
 14 49  1  0  0  0  0
 15 17  1  0  0  0  0
 15 50  1  0  0  0  0
 15 51  1  0  0  0  0
 16 21  1  0  0  0  0
 16 52  1  0  0  0  0
 16 53  1  0  0  0  0
 17 20  1  0  0  0  0
 17 54  1  0  0  0  0
 17 55  1  0  0  0  0
 18 56  1  0  0  0  0
 18 57  1  0  0  0  0
 19 58  1  0  0  0  0
 19 59  1  0  0  0  0
 20 21  2  0  0  0  0
 20 22  1  0  0  0  0
 21 60  1  0  0  0  0
 22 23  1  0  0  0  0
 22 24  2  0  0  0  0
 23 26  2  0  0  0  0
 23 28  1  0  0  0  0
 24 25  1  0  0  0  0
 24 61  1  0  0  0  0
 25 27  2  0  0  0  0
 26 27  1  0  0  0  0
 26 62  1  0  0  0  0
 28 63  1  0  0  0  0
 28 64  1  0  0  0  0
 28 65  1  0  0  0  0
 29 33  1  0  0  0  0
 29 34  1  0  0  0  0
 29 67  1  0  0  0  0
 30 36  1  0  0  0  0
 30 37  1  0  0  0  0
 30 68  1  0  0  0  0
 32 35  1  0  0  0  0
 32 38  2  0  0  0  0
 33 69  1  0  0  0  0
 33 70  1  0  0  0  0
 33 71  1  0  0  0  0
 34 72  1  0  0  0  0
 34 73  1  0  0  0  0
 34 74  1  0  0  0  0
 35 40  2  0  0  0  0
 36 75  1  0  0  0  0
 36 76  1  0  0  0  0
 36 77  1  0  0  0  0
 37 78  1  0  0  0  0
 37 79  1  0  0  0  0
 37 80  1  0  0  0  0
 38 41  1  0  0  0  0
 38 81  1  0  0  0  0
 39 43  1  0  0  0  0
 40 42  1  0  0  0  0
 40 83  1  0  0  0  0
 41 42  2  0  0  0  0
 41 84  1  0  0  0  0
 42 85  1  0  0  0  0
 43 44  2  0  0  0  0
 44 86  1  0  0  0  0
M  END
> <PUBCHEM_COMPOUND_CID>
138678712

> <PUBCHEM_COMPOUND_CANONICALIZED>
1

> <PUBCHEM_CACTVS_COMPLEXITY>
1050

> <PUBCHEM_CACTVS_HBOND_ACCEPTOR>
9

> <PUBCHEM_CACTVS_HBOND_DONOR>
2

> <PUBCHEM_CACTVS_ROTATABLE_BOND>
10

> <PUBCHEM_CACTVS_SUBSKEYS>
AAADcfB/uABEAAAAAAAAAAAAAAAAAAAAAAA8aIECAAAAAAAB0AAAHgYQAAAADD7l2ia/95fIFAqgAjZnZHDCiCkxK7AJ2DwvbJiOLuLk+dvHPCju0BP46CeQwLAOqAABQAAQEQBQAAKAACAiAAAAAAAAAA==

> <PUBCHEM_IUPAC_OPENEYE_NAME>
5-chloro-N2-[2-isopropoxy-5-methyl-4-(1-tetrahydropyran-4-yl-3,6-dihydro-2H-pyridin-4-yl)phenyl]-N4-(2-isopropylsulfonylphenyl)pyrimidine-2,4-diamine

> <PUBCHEM_IUPAC_CAS_NAME>
5-chloro-N2-[5-methyl-4-[1-(4-oxanyl)-3,6-dihydro-2H-pyridin-4-yl]-2-propan-2-yloxyphenyl]-N4-(2-propan-2-ylsulfonylphenyl)pyrimidine-2,4-diamine

> <PUBCHEM_IUPAC_NAME_MARKUP>
5-chloro-2-<I>N</I>-[5-methyl-4-[1-(oxan-4-yl)-3,6-dihydro-2<I>H</I>-pyridin-4-yl]-2-propan-2-yloxyphenyl]-4-<I>N</I>-(2-propan-2-ylsulfonylphenyl)pyrimidine-2,4-diamine

> <PUBCHEM_IUPAC_NAME>
5-chloro-2-N-[5-methyl-4-[1-(oxan-4-yl)-3,6-dihydro-2H-pyridin-4-yl]-2-propan-2-yloxyphenyl]-4-N-(2-propan-2-ylsulfonylphenyl)pyrimidine-2,4-diamine

> <PUBCHEM_IUPAC_SYSTEMATIC_NAME>
5-chloranyl-N2-[5-methyl-4-[1-(oxan-4-yl)-3,6-dihydro-2H-pyridin-4-yl]-2-propan-2-yloxy-phenyl]-N4-(2-propan-2-ylsulfonylphenyl)pyrimidine-2,4-diamine

> <PUBCHEM_IUPAC_TRADITIONAL_NAME>
[5-chloro-2-[2-isopropoxy-5-methyl-4-(1-tetrahydropyran-4-yl-3,6-dihydro-2H-pyridin-4-yl)anilino]pyrimidin-4-yl]-(2-isopropylsulfonylphenyl)amine

> <PUBCHEM_IUPAC_INCHI>
InChI=1S/C33H42ClN5O4S/c1-21(2)43-30-19-26(24-10-14-39(15-11-24)25-12-16-42-17-13-25)23(5)18-29(30)37-33-35-20-27(34)32(38-33)36-28-8-6-7-9-31(28)44(40,41)22(3)4/h6-10,18-22,25H,11-17H2,1-5H3,(H2,35,36,37,38)

> <PUBCHEM_IUPAC_INCHIKEY>
YWPHBSHEGTZPNS-UHFFFAOYSA-N

> <PUBCHEM_XLOGP3_AA>
6.9

> <PUBCHEM_EXACT_MASS>
639.2646037

> <PUBCHEM_MOLECULAR_FORMULA>
C33H42ClN5O4S

> <PUBCHEM_MOLECULAR_WEIGHT>
640.2

> <PUBCHEM_OPENEYE_CAN_SMILES>
CC1=CC(=C(C=C1C2=CCN(CC2)C3CCOCC3)OC(C)C)NC4=NC=C(C(=N4)NC5=CC=CC=C5S(=O)(=O)C(C)C)Cl

> <PUBCHEM_OPENEYE_ISO_SMILES>
CC1=CC(=C(C=C1C2=CCN(CC2)C3CCOCC3)OC(C)C)NC4=NC=C(C(=N4)NC5=CC=CC=C5S(=O)(=O)C(C)C)Cl

> <PUBCHEM_CACTVS_TPSA>
114

> <PUBCHEM_MONOISOTOPIC_WEIGHT>
639.2646037

> <PUBCHEM_TOTAL_CHARGE>
0

> <PUBCHEM_HEAVY_ATOM_COUNT>
44

> <PUBCHEM_ATOM_DEF_STEREO_COUNT>
0

> <PUBCHEM_ATOM_UDEF_STEREO_COUNT>
0

> <PUBCHEM_BOND_DEF_STEREO_COUNT>
0

> <PUBCHEM_BOND_UDEF_STEREO_COUNT>
0

> <PUBCHEM_ISOTOPIC_ATOM_COUNT>
0

> <PUBCHEM_COMPONENT_COUNT>
1

> <PUBCHEM_CACTVS_TAUTO_COUNT>
-1

> <PUBCHEM_COORDINATE_TYPE>
1
5
255

> <PUBCHEM_BONDANNOTATIONS>
10  31  8
10  39  8
11  31  8
11  44  8
22  23  8
22  24  8
23  26  8
24  25  8
25  27  8
26  27  8
32  35  8
32  38  8
35  40  8
38  41  8
39  43  8
40  42  8
41  42  8
43  44  8

$$$$
5330535
  -OEChem-11282412102D

 33 36  0     0  0  0  0  0  0999 V2000
    8.1648   -2.1394    0.0000 O   0  0  0  0  0  0  0  0  0  0  0  0
    2.5369   -0.2734    0.0000 O   0  0  0  0  0  0  0  0  0  0  0  0
    6.0812   -2.0782    0.0000 N   0  0  0  0  0  0  0  0  0  0  0  0
    7.7597    0.5004    0.0000 N   0  0  0  0  0  0  0  0  0  0  0  0
    6.6648   -1.2734    0.0000 C   0  0  0  0  0  0  0  0  0  0  0  0
    8.1648   -0.4074    0.0000 C   0  0  0  0  0  0  0  0  0  0  0  0
    5.1350   -0.7734    0.0000 C   0  0  0  0  0  0  0  0  0  0  0  0
    5.1350   -1.7734    0.0000 C   0  0  0  0  0  0  0  0  0  0  0  0
    8.4967    1.1675    0.0000 C   0  0  0  0  0  0  0  0  0  0  0  0
    9.3628    0.6675    0.0000 C   0  0  0  0  0  0  0  0  0  0  0  0
    7.6648   -1.2734    0.0000 C   0  0  0  0  0  0  0  0  0  0  0  0
    6.0812   -0.4687    0.0000 C   0  0  0  0  0  0  0  0  0  0  0  0
    9.1536   -0.3043    0.0000 C   0  0  0  0  0  0  0  0  0  0  0  0
    4.2690   -0.2734    0.0000 C   0  0  0  0  0  0  0  0  0  0  0  0
    4.2690   -2.2734    0.0000 C   0  0  0  0  0  0  0  0  0  0  0  0
    8.4967    2.1675    0.0000 C   0  0  0  0  0  0  0  0  0  0  0  0
   10.2288    1.1675    0.0000 C   0  0  0  0  0  0  0  0  0  0  0  0
    3.4030   -0.7734    0.0000 C   0  0  0  0  0  0  0  0  0  0  0  0
    3.4030   -1.7734    0.0000 C   0  0  0  0  0  0  0  0  0  0  0  0
    9.3628    2.6675    0.0000 C   0  0  0  0  0  0  0  0  0  0  0  0
   10.2288    2.1675    0.0000 C   0  0  0  0  0  0  0  0  0  0  0  0
    6.2738    0.1206    0.0000 H   0  0  0  0  0  0  0  0  0  0  0  0
    6.2738   -2.6675    0.0000 H   0  0  0  0  0  0  0  0  0  0  0  0
    7.1530    0.6282    0.0000 H   0  0  0  0  0  0  0  0  0  0  0  0
    9.5676   -0.7658    0.0000 H   0  0  0  0  0  0  0  0  0  0  0  0
    4.2690    0.3466    0.0000 H   0  0  0  0  0  0  0  0  0  0  0  0
    4.2690   -2.8934    0.0000 H   0  0  0  0  0  0  0  0  0  0  0  0
    7.9598    2.4775    0.0000 H   0  0  0  0  0  0  0  0  0  0  0  0
   10.7657    0.8575    0.0000 H   0  0  0  0  0  0  0  0  0  0  0  0
    2.8660   -2.0834    0.0000 H   0  0  0  0  0  0  0  0  0  0  0  0
    9.3628    3.2875    0.0000 H   0  0  0  0  0  0  0  0  0  0  0  0
   10.7657    2.4775    0.0000 H   0  0  0  0  0  0  0  0  0  0  0  0
    2.0000   -0.5834    0.0000 H   0  0  0  0  0  0  0  0  0  0  0  0
  1 11  2  0  0  0  0
  2 18  1  0  0  0  0
  2 33  1  0  0  0  0
  3  5  1  0  0  0  0
  3  8  1  0  0  0  0
  3 23  1  0  0  0  0
  4  6  1  0  0  0  0
  4  9  1  0  0  0  0
  4 24  1  0  0  0  0
  5 11  1  0  0  0  0
  5 12  2  0  0  0  0
  6 11  1  0  0  0  0
  6 13  2  0  0  0  0
  7  8  2  0  0  0  0
  7 12  1  0  0  0  0
  7 14  1  0  0  0  0
  8 15  1  0  0  0  0
  9 10  1  0  0  0  0
  9 16  2  0  0  0  0
 10 13  1  0  0  0  0
 10 17  2  0  0  0  0
 12 22  1  0  0  0  0
 13 25  1  0  0  0  0
 14 18  2  0  0  0  0
 14 26  1  0  0  0  0
 15 19  2  0  0  0  0
 15 27  1  0  0  0  0
 16 20  1  0  0  0  0
 16 28  1  0  0  0  0
 17 21  1  0  0  0  0
 17 29  1  0  0  0  0
 18 19  1  0  0  0  0
 19 30  1  0  0  0  0
 20 21  2  0  0  0  0
 20 31  1  0  0  0  0
 21 32  1  0  0  0  0
M  END
> <PUBCHEM_COMPOUND_CID>
5330535

> <PUBCHEM_COMPOUND_CANONICALIZED>
1

> <PUBCHEM_CACTVS_COMPLEXITY>
414

> <PUBCHEM_CACTVS_HBOND_ACCEPTOR>
2

> <PUBCHEM_CACTVS_HBOND_DONOR>
3

> <PUBCHEM_CACTVS_ROTATABLE_BOND>
2

> <PUBCHEM_CACTVS_SUBSKEYS>
AAADccB7MAAAAAAAAAAAAAAAAAAAAWLAAAAwYAAAAAAAAFgB/gAAHgAQCAAADAyBngAwxvLJkgCoA6RyRACCgCAnIiAImSG2bNgIJvLC1bOEcQhk0BHI2Ye42fOeAEABAAACAAAAgAIAAAQAAAAAAAAAAA==

> <PUBCHEM_IUPAC_OPENEYE_NAME>
(5-hydroxy-1H-indol-2-yl)-(1H-indol-2-yl)methanone

> <PUBCHEM_IUPAC_CAS_NAME>
(5-hydroxy-1H-indol-2-yl)-(1H-indol-2-yl)methanone

> <PUBCHEM_IUPAC_NAME_MARKUP>
(5-hydroxy-1<I>H</I>-indol-2-yl)-(1<I>H</I>-indol-2-yl)methanone

> <PUBCHEM_IUPAC_NAME>
(5-hydroxy-1H-indol-2-yl)-(1H-indol-2-yl)methanone

> <PUBCHEM_IUPAC_SYSTEMATIC_NAME>
1H-indol-2-yl-(5-oxidanyl-1H-indol-2-yl)methanone

> <PUBCHEM_IUPAC_TRADITIONAL_NAME>
(5-hydroxy-1H-indol-2-yl)-(1H-indol-2-yl)methanone

> <PUBCHEM_IUPAC_INCHI>
InChI=1S/C17H12N2O2/c20-12-5-6-14-11(7-12)9-16(19-14)17(21)15-8-10-3-1-2-4-13(10)18-15/h1-9,18-20H

> <PUBCHEM_IUPAC_INCHIKEY>
AALNCHNFTKRFEL-UHFFFAOYSA-N

> <PUBCHEM_XLOGP3_AA>
3.8

> <PUBCHEM_EXACT_MASS>
276.089877630

> <PUBCHEM_MOLECULAR_FORMULA>
C17H12N2O2

> <PUBCHEM_MOLECULAR_WEIGHT>
276.29

> <PUBCHEM_OPENEYE_CAN_SMILES>
C1=CC=C2C(=C1)C=C(N2)C(=O)C3=CC4=C(N3)C=CC(=C4)O

> <PUBCHEM_OPENEYE_ISO_SMILES>
C1=CC=C2C(=C1)C=C(N2)C(=O)C3=CC4=C(N3)C=CC(=C4)O

> <PUBCHEM_CACTVS_TPSA>
68.9

> <PUBCHEM_MONOISOTOPIC_WEIGHT>
276.089877630

> <PUBCHEM_TOTAL_CHARGE>
0

> <PUBCHEM_HEAVY_ATOM_COUNT>
21

> <PUBCHEM_ATOM_DEF_STEREO_COUNT>
0

> <PUBCHEM_ATOM_UDEF_STEREO_COUNT>
0

> <PUBCHEM_BOND_DEF_STEREO_COUNT>
0

> <PUBCHEM_BOND_UDEF_STEREO_COUNT>
0

> <PUBCHEM_ISOTOPIC_ATOM_COUNT>
0

> <PUBCHEM_COMPONENT_COUNT>
1

> <PUBCHEM_CACTVS_TAUTO_COUNT>
-1

> <PUBCHEM_COORDINATE_TYPE>
1
5
255

> <PUBCHEM_BONDANNOTATIONS>
10  13  8
10  17  8
14  18  8
15  19  8
16  20  8
17  21  8
18  19  8
20  21  8
3  5  8
3  8  8
4  6  8
4  9  8
5  12  8
6  13  8
7  12  8
7  14  8
7  8  8
8  15  8
9  10  8
9  16  8

$$$$
969516
  -OEChem-11282412102D

 47 48  0     0  0  0  0  0  0999 V2000
    8.9282    5.6550    0.0000 O   0  0  0  0  0  0  0  0  0  0  0  0
    2.8660   -4.8450    0.0000 O   0  0  0  0  0  0  0  0  0  0  0  0
   10.6603    4.6550    0.0000 O   0  0  0  0  0  0  0  0  0  0  0  0
    4.5981   -5.8450    0.0000 O   0  0  0  0  0  0  0  0  0  0  0  0
    5.4641    1.6550    0.0000 O   0  0  0  0  0  0  0  0  0  0  0  0
    4.5981    0.1550    0.0000 O   0  0  0  0  0  0  0  0  0  0  0  0
    8.0622    3.1550    0.0000 C   0  0  0  0  0  0  0  0  0  0  0  0
    4.5981   -2.8450    0.0000 C   0  0  0  0  0  0  0  0  0  0  0  0
    6.3301    0.1550    0.0000 C   0  0  0  0  0  0  0  0  0  0  0  0
    8.0622    4.1550    0.0000 C   0  0  0  0  0  0  0  0  0  0  0  0
    3.7320   -3.3450    0.0000 C   0  0  0  0  0  0  0  0  0  0  0  0
    8.9282    4.6550    0.0000 C   0  0  0  0  0  0  0  0  0  0  0  0
    3.7320   -4.3450    0.0000 C   0  0  0  0  0  0  0  0  0  0  0  0
    8.9282    2.6550    0.0000 C   0  0  0  0  0  0  0  0  0  0  0  0
    5.4641   -3.3450    0.0000 C   0  0  0  0  0  0  0  0  0  0  0  0
    7.1962    2.6550    0.0000 C   0  0  0  0  0  0  0  0  0  0  0  0
    4.5981   -1.8450    0.0000 C   0  0  0  0  0  0  0  0  0  0  0  0
    9.7942    4.1550    0.0000 C   0  0  0  0  0  0  0  0  0  0  0  0
    4.5981   -4.8450    0.0000 C   0  0  0  0  0  0  0  0  0  0  0  0
    6.3301    1.1550    0.0000 C   0  0  0  0  0  0  0  0  0  0  0  0
    5.4641   -0.3450    0.0000 C   0  0  0  0  0  0  0  0  0  0  0  0
    9.7942    3.1550    0.0000 C   0  0  0  0  0  0  0  0  0  0  0  0
    5.4641   -4.3450    0.0000 C   0  0  0  0  0  0  0  0  0  0  0  0
    7.1962    1.6550    0.0000 C   0  0  0  0  0  0  0  0  0  0  0  0
    5.4641   -1.3450    0.0000 C   0  0  0  0  0  0  0  0  0  0  0  0
    8.0622    6.1550    0.0000 C   0  0  0  0  0  0  0  0  0  0  0  0
    2.0000   -4.3450    0.0000 C   0  0  0  0  0  0  0  0  0  0  0  0
    6.5422   -0.4276    0.0000 H   0  0  0  0  0  0  0  0  0  0  0  0
    6.9407    0.2627    0.0000 H   0  0  0  0  0  0  0  0  0  0  0  0
    7.5252    4.4650    0.0000 H   0  0  0  0  0  0  0  0  0  0  0  0
    3.1951   -3.0350    0.0000 H   0  0  0  0  0  0  0  0  0  0  0  0
    8.9282    2.0350    0.0000 H   0  0  0  0  0  0  0  0  0  0  0  0
    6.0010   -3.0350    0.0000 H   0  0  0  0  0  0  0  0  0  0  0  0
    6.6592    2.9650    0.0000 H   0  0  0  0  0  0  0  0  0  0  0  0
    4.0611   -1.5350    0.0000 H   0  0  0  0  0  0  0  0  0  0  0  0
   10.3312    2.8450    0.0000 H   0  0  0  0  0  0  0  0  0  0  0  0
    6.0010   -4.6550    0.0000 H   0  0  0  0  0  0  0  0  0  0  0  0
    7.7331    1.3450    0.0000 H   0  0  0  0  0  0  0  0  0  0  0  0
    6.0010   -1.6550    0.0000 H   0  0  0  0  0  0  0  0  0  0  0  0
   11.1972    4.3450    0.0000 H   0  0  0  0  0  0  0  0  0  0  0  0
    5.1350   -6.1550    0.0000 H   0  0  0  0  0  0  0  0  0  0  0  0
    8.3722    6.6919    0.0000 H   0  0  0  0  0  0  0  0  0  0  0  0
    7.5252    6.4650    0.0000 H   0  0  0  0  0  0  0  0  0  0  0  0
    7.7522    5.6181    0.0000 H   0  0  0  0  0  0  0  0  0  0  0  0
    2.3100   -3.8081    0.0000 H   0  0  0  0  0  0  0  0  0  0  0  0
    1.4631   -4.0350    0.0000 H   0  0  0  0  0  0  0  0  0  0  0  0
    1.6900   -4.8819    0.0000 H   0  0  0  0  0  0  0  0  0  0  0  0
  1 12  1  0  0  0  0
  1 26  1  0  0  0  0
  2 13  1  0  0  0  0
  2 27  1  0  0  0  0
  3 18  1  0  0  0  0
  3 40  1  0  0  0  0
  4 19  1  0  0  0  0
  4 41  1  0  0  0  0
  5 20  2  0  0  0  0
  6 21  2  0  0  0  0
  7 10  2  0  0  0  0
  7 14  1  0  0  0  0
  7 16  1  0  0  0  0
  8 11  2  0  0  0  0
  8 15  1  0  0  0  0
  8 17  1  0  0  0  0
  9 20  1  0  0  0  0
  9 21  1  0  0  0  0
  9 28  1  0  0  0  0
  9 29  1  0  0  0  0
 10 12  1  0  0  0  0
 10 30  1  0  0  0  0
 11 13  1  0  0  0  0
 11 31  1  0  0  0  0
 12 18  2  0  0  0  0
 13 19  2  0  0  0  0
 14 22  2  0  0  0  0
 14 32  1  0  0  0  0
 15 23  2  0  0  0  0
 15 33  1  0  0  0  0
 16 24  2  0  0  0  0
 16 34  1  0  0  0  0
 17 25  2  0  0  0  0
 17 35  1  0  0  0  0
 18 22  1  0  0  0  0
 19 23  1  0  0  0  0
 20 24  1  0  0  0  0
 21 25  1  0  0  0  0
 22 36  1  0  0  0  0
 23 37  1  0  0  0  0
 24 38  1  0  0  0  0
 25 39  1  0  0  0  0
 26 42  1  0  0  0  0
 26 43  1  0  0  0  0
 26 44  1  0  0  0  0
 27 45  1  0  0  0  0
 27 46  1  0  0  0  0
 27 47  1  0  0  0  0
M  END
> <PUBCHEM_COMPOUND_CID>
969516

> <PUBCHEM_COMPOUND_CANONICALIZED>
1

> <PUBCHEM_CACTVS_COMPLEXITY>
507

> <PUBCHEM_CACTVS_HBOND_ACCEPTOR>
6

> <PUBCHEM_CACTVS_HBOND_DONOR>
2

> <PUBCHEM_CACTVS_ROTATABLE_BOND>
8

> <PUBCHEM_CACTVS_SUBSKEYS>
AAADceB4OAAAAAAAAAAAAAAAAAAAAAAAAAAwYAAAAAAAAAABQAAAGgAACAAADASAmAIyBoAABgCIAqBSAAACCAAgIAAIiAEGiMgNJjKOMRqAcCMkwBELuYeAwBAOIAABAAAAQABAAAIAAACAAAAAAAAAAA==

> <PUBCHEM_IUPAC_OPENEYE_NAME>
(1E,6E)-1,7-bis(4-hydroxy-3-methoxy-phenyl)hepta-1,6-diene-3,5-dione

> <PUBCHEM_IUPAC_CAS_NAME>
(1E,6E)-1,7-bis(4-hydroxy-3-methoxyphenyl)hepta-1,6-diene-3,5-dione

> <PUBCHEM_IUPAC_NAME_MARKUP>
(1<I>E</I>,6<I>E</I>)-1,7-bis(4-hydroxy-3-methoxyphenyl)hepta-1,6-diene-3,5-dione

> <PUBCHEM_IUPAC_NAME>
(1E,6E)-1,7-bis(4-hydroxy-3-methoxyphenyl)hepta-1,6-diene-3,5-dione

> <PUBCHEM_IUPAC_SYSTEMATIC_NAME>
(1E,6E)-1,7-bis(3-methoxy-4-oxidanyl-phenyl)hepta-1,6-diene-3,5-dione

> <PUBCHEM_IUPAC_TRADITIONAL_NAME>
(1E,6E)-1,7-bis(4-hydroxy-3-methoxy-phenyl)hepta-1,6-diene-3,5-dione

> <PUBCHEM_IUPAC_INCHI>
InChI=1S/C21H20O6/c1-26-20-11-14(5-9-18(20)24)3-7-16(22)13-17(23)8-4-15-6-10-19(25)21(12-15)27-2/h3-12,24-25H,13H2,1-2H3/b7-3+,8-4+

> <PUBCHEM_IUPAC_INCHIKEY>
VFLDPWHFBUODDF-FCXRPNKRSA-N

> <PUBCHEM_XLOGP3_AA>
3.2

> <PUBCHEM_EXACT_MASS>
368.12598835

> <PUBCHEM_MOLECULAR_FORMULA>
C21H20O6

> <PUBCHEM_MOLECULAR_WEIGHT>
368.4

> <PUBCHEM_OPENEYE_CAN_SMILES>
COC1=C(C=CC(=C1)C=CC(=O)CC(=O)C=CC2=CC(=C(C=C2)O)OC)O

> <PUBCHEM_OPENEYE_ISO_SMILES>
COC1=C(C=CC(=C1)/C=C/C(=O)CC(=O)/C=C/C2=CC(=C(C=C2)O)OC)O

> <PUBCHEM_CACTVS_TPSA>
93.1

> <PUBCHEM_MONOISOTOPIC_WEIGHT>
368.12598835

> <PUBCHEM_TOTAL_CHARGE>
0

> <PUBCHEM_HEAVY_ATOM_COUNT>
27

> <PUBCHEM_ATOM_DEF_STEREO_COUNT>
0

> <PUBCHEM_ATOM_UDEF_STEREO_COUNT>
0

> <PUBCHEM_BOND_DEF_STEREO_COUNT>
2

> <PUBCHEM_BOND_UDEF_STEREO_COUNT>
0

> <PUBCHEM_ISOTOPIC_ATOM_COUNT>
0

> <PUBCHEM_COMPONENT_COUNT>
1

> <PUBCHEM_CACTVS_TAUTO_COUNT>
-1

> <PUBCHEM_COORDINATE_TYPE>
1
5
255

> <PUBCHEM_BONDANNOTATIONS>
10  12  8
11  13  8
12  18  8
13  19  8
14  22  8
15  23  8
18  22  8
19  23  8
7  10  8
7  14  8
8  11  8
8  15  8

$$$$
5281811
  -OEChem-11282412102D

 34 36  0     0  0  0  0  0  0999 V2000
    6.3580   -1.4917    0.0000 O   0  0  0  0  0  0  0  0  0  0  0  0
    2.8660    0.5429    0.0000 O   0  0  0  0  0  0  0  0  0  0  0  0
    4.5981    1.5429    0.0000 O   0  0  0  0  0  0  0  0  0  0  0  0
    6.3465    1.5775    0.0000 O   0  0  0  0  0  0  0  0  0  0  0  0
    2.8660   -1.4571    0.0000 O   0  0  0  0  0  0  0  0  0  0  0  0
   10.7205    2.0771    0.0000 O   0  0  0  0  0  0  0  0  0  0  0  0
    5.4641    0.0429    0.0000 C   0  0  0  0  0  0  0  0  0  0  0  0
    5.4641   -0.9571    0.0000 C   0  0  0  0  0  0  0  0  0  0  0  0
    7.2641    0.0637    0.0000 C   0  0  0  0  0  0  0  0  0  0  0  0
    6.3580    0.5776    0.0000 C   0  0  0  0  0  0  0  0  0  0  0  0
    4.5981    0.5429    0.0000 C   0  0  0  0  0  0  0  0  0  0  0  0
    8.1282    0.5671    0.0000 C   0  0  0  0  0  0  0  0  0  0  0  0
    3.7320    0.0429    0.0000 C   0  0  0  0  0  0  0  0  0  0  0  0
    4.5981   -1.4571    0.0000 C   0  0  0  0  0  0  0  0  0  0  0  0
    7.2641   -0.9779    0.0000 C   0  0  0  0  0  0  0  0  0  0  0  0
    3.7320   -0.9571    0.0000 C   0  0  0  0  0  0  0  0  0  0  0  0
    8.9962    0.0704    0.0000 C   0  0  0  0  0  0  0  0  0  0  0  0
    8.1244    1.5671    0.0000 C   0  0  0  0  0  0  0  0  0  0  0  0
    9.8602    0.5738    0.0000 C   0  0  0  0  0  0  0  0  0  0  0  0
    8.9884    2.0704    0.0000 C   0  0  0  0  0  0  0  0  0  0  0  0
    9.8564    1.5737    0.0000 C   0  0  0  0  0  0  0  0  0  0  0  0
    2.0000    0.0429    0.0000 C   0  0  0  0  0  0  0  0  0  0  0  0
    4.5981   -2.0771    0.0000 H   0  0  0  0  0  0  0  0  0  0  0  0
    7.7998   -1.2900    0.0000 H   0  0  0  0  0  0  0  0  0  0  0  0
    8.9985   -0.5496    0.0000 H   0  0  0  0  0  0  0  0  0  0  0  0
    7.5862    1.8750    0.0000 H   0  0  0  0  0  0  0  0  0  0  0  0
   10.3984    0.2658    0.0000 H   0  0  0  0  0  0  0  0  0  0  0  0
    8.9860    2.6904    0.0000 H   0  0  0  0  0  0  0  0  0  0  0  0
    4.0611    1.8529    0.0000 H   0  0  0  0  0  0  0  0  0  0  0  0
    2.8660   -2.0771    0.0000 H   0  0  0  0  0  0  0  0  0  0  0  0
    1.6900    0.5799    0.0000 H   0  0  0  0  0  0  0  0  0  0  0  0
    1.4631   -0.2671    0.0000 H   0  0  0  0  0  0  0  0  0  0  0  0
    2.3100   -0.4940    0.0000 H   0  0  0  0  0  0  0  0  0  0  0  0
   11.2586    1.7692    0.0000 H   0  0  0  0  0  0  0  0  0  0  0  0
  1  8  1  0  0  0  0
  1 15  1  0  0  0  0
  2 13  1  0  0  0  0
  2 22  1  0  0  0  0
  3 11  1  0  0  0  0
  3 29  1  0  0  0  0
  4 10  2  0  0  0  0
  5 16  1  0  0  0  0
  5 30  1  0  0  0  0
  6 21  1  0  0  0  0
  6 34  1  0  0  0  0
  7  8  2  0  0  0  0
  7 10  1  0  0  0  0
  7 11  1  0  0  0  0
  8 14  1  0  0  0  0
  9 10  1  0  0  0  0
  9 12  1  0  0  0  0
  9 15  2  0  0  0  0
 11 13  2  0  0  0  0
 12 17  2  0  0  0  0
 12 18  1  0  0  0  0
 13 16  1  0  0  0  0
 14 16  2  0  0  0  0
 14 23  1  0  0  0  0
 15 24  1  0  0  0  0
 17 19  1  0  0  0  0
 17 25  1  0  0  0  0
 18 20  2  0  0  0  0
 18 26  1  0  0  0  0
 19 21  2  0  0  0  0
 19 27  1  0  0  0  0
 20 21  1  0  0  0  0
 20 28  1  0  0  0  0
 22 31  1  0  0  0  0
 22 32  1  0  0  0  0
 22 33  1  0  0  0  0
M  END
> <PUBCHEM_COMPOUND_CID>
5281811

> <PUBCHEM_COMPOUND_CANONICALIZED>
1

> <PUBCHEM_CACTVS_COMPLEXITY>
454

> <PUBCHEM_CACTVS_HBOND_ACCEPTOR>
6

> <PUBCHEM_CACTVS_HBOND_DONOR>
3

> <PUBCHEM_CACTVS_ROTATABLE_BOND>
2

> <PUBCHEM_CACTVS_SUBSKEYS>
AAADccB4OAAAAAAAAAAAAAAAAAAAAAAAAAAwYIAAAAAAAACBQAAAGgAACAAADASgmAIyBoAABgCIAqBSAAACCAAkIAAIiAEGiMgNJzaGNRqAcWMl4BULuYfK7PzOIQABCAAIQABCAAIQABCAAAAAAAAAAA==

> <PUBCHEM_IUPAC_OPENEYE_NAME>
5,7-dihydroxy-3-(4-hydroxyphenyl)-6-methoxy-chromen-4-one

> <PUBCHEM_IUPAC_CAS_NAME>
5,7-dihydroxy-3-(4-hydroxyphenyl)-6-methoxy-1-benzopyran-4-one

> <PUBCHEM_IUPAC_NAME_MARKUP>
5,7-dihydroxy-3-(4-hydroxyphenyl)-6-methoxychromen-4-one

> <PUBCHEM_IUPAC_NAME>
5,7-dihydroxy-3-(4-hydroxyphenyl)-6-methoxychromen-4-one

> <PUBCHEM_IUPAC_SYSTEMATIC_NAME>
3-(4-hydroxyphenyl)-6-methoxy-5,7-bis(oxidanyl)chromen-4-one

> <PUBCHEM_IUPAC_TRADITIONAL_NAME>
5,7-dihydroxy-3-(4-hydroxyphenyl)-6-methoxy-chromone

> <PUBCHEM_IUPAC_INCHI>
InChI=1S/C16H12O6/c1-21-16-11(18)6-12-13(15(16)20)14(19)10(7-22-12)8-2-4-9(17)5-3-8/h2-7,17-18,20H,1H3

> <PUBCHEM_IUPAC_INCHIKEY>
OBBCRPUNCUPUOS-UHFFFAOYSA-N

> <PUBCHEM_XLOGP3_AA>
2.6

> <PUBCHEM_EXACT_MASS>
300.06338810

> <PUBCHEM_MOLECULAR_FORMULA>
C16H12O6

> <PUBCHEM_MOLECULAR_WEIGHT>
300.26

> <PUBCHEM_OPENEYE_CAN_SMILES>
COC1=C(C2=C(C=C1O)OC=C(C2=O)C3=CC=C(C=C3)O)O

> <PUBCHEM_OPENEYE_ISO_SMILES>
COC1=C(C2=C(C=C1O)OC=C(C2=O)C3=CC=C(C=C3)O)O

> <PUBCHEM_CACTVS_TPSA>
96.2

> <PUBCHEM_MONOISOTOPIC_WEIGHT>
300.06338810

> <PUBCHEM_TOTAL_CHARGE>
0

> <PUBCHEM_HEAVY_ATOM_COUNT>
22

> <PUBCHEM_ATOM_DEF_STEREO_COUNT>
0

> <PUBCHEM_ATOM_UDEF_STEREO_COUNT>
0

> <PUBCHEM_BOND_DEF_STEREO_COUNT>
0

> <PUBCHEM_BOND_UDEF_STEREO_COUNT>
0

> <PUBCHEM_ISOTOPIC_ATOM_COUNT>
0

> <PUBCHEM_COMPONENT_COUNT>
1

> <PUBCHEM_CACTVS_TAUTO_COUNT>
-1

> <PUBCHEM_COORDINATE_TYPE>
1
5
255

> <PUBCHEM_BONDANNOTATIONS>
1  15  8
1  8  8
11  13  8
12  17  8
12  18  8
13  16  8
14  16  8
17  19  8
18  20  8
19  21  8
20  21  8
7  10  8
7  11  8
7  8  8
8  14  8
9  10  8
9  15  8

$$$$
10138259
  -OEChem-11282412102D

 59 62  0     1  0  0  0  0  0999 V2000
    2.0000   -0.8566    0.0000 F   0  0  0  0  0  0  0  0  0  0  0  0
   15.1363    2.0894    0.0000 O   0  0  0  0  0  0  0  0  0  0  0  0
   11.8399    1.0247    0.0000 O   0  0  0  0  0  0  0  0  0  0  0  0
    8.5992    2.6051    0.0000 O   0  0  0  0  0  0  0  0  0  0  0  0
    7.1279   -1.8566    0.0000 O   0  0  0  0  0  0  0  0  0  0  0  0
   13.1807    2.5086    0.0000 N   0  0  0  0  0  0  0  0  0  0  0  0
    9.8843    1.4439    0.0000 N   0  0  0  0  0  0  0  0  0  0  0  0
    7.5754   -0.5655    0.0000 N   0  0  0  0  0  0  0  0  0  0  0  0
    5.5443   -2.6613    0.0000 N   0  0  0  0  0  0  0  0  0  0  0  0
   12.2029    2.7182    0.0000 C   0  0  0  0  0  0  0  0  0  0  0  0
   13.4881    1.5570    0.0000 C   0  0  0  0  0  0  0  0  0  0  0  0
   13.8511    3.2506    0.0000 C   0  0  0  0  0  0  0  0  0  0  0  0
   11.5325    1.9763    0.0000 C   0  0  2  0  0  0  0  0  0  0  0  0
   14.4659    1.3474    0.0000 C   0  0  0  0  0  0  0  0  0  0  0  0
   14.8289    3.0410    0.0000 C   0  0  0  0  0  0  0  0  0  0  0  0
   10.5547    2.1859    0.0000 C   0  0  0  0  0  0  0  0  0  0  0  0
    8.2361    0.9115    0.0000 C   0  0  0  0  0  0  0  0  0  0  0  0
    7.2418    1.0177    0.0000 C   0  0  0  0  0  0  0  0  0  0  0  0
    6.8335    0.1049    0.0000 C   0  0  0  0  0  0  0  0  0  0  0  0
    8.4423   -0.0670    0.0000 C   0  0  0  0  0  0  0  0  0  0  0  0
    8.9065    1.6535    0.0000 C   0  0  0  0  0  0  0  0  0  0  0  0
    5.8550   -0.1013    0.0000 C   0  0  0  0  0  0  0  0  0  0  0  0
    5.5443   -1.0518    0.0000 C   0  0  0  0  0  0  0  0  0  0  0  0
    4.5981   -1.3566    0.0000 C   0  0  0  0  0  0  0  0  0  0  0  0
    6.7433    1.8846    0.0000 C   0  0  0  0  0  0  0  0  0  0  0  0
    9.3552   -0.4753    0.0000 C   0  0  0  0  0  0  0  0  0  0  0  0
    4.5981   -2.3566    0.0000 C   0  0  0  0  0  0  0  0  0  0  0  0
    6.1279   -1.8566    0.0000 C   0  0  0  0  0  0  0  0  0  0  0  0
    3.7320   -0.8566    0.0000 C   0  0  0  0  0  0  0  0  0  0  0  0
    3.7320   -2.8566    0.0000 C   0  0  0  0  0  0  0  0  0  0  0  0
    2.8660   -1.3566    0.0000 C   0  0  0  0  0  0  0  0  0  0  0  0
    2.8660   -2.3566    0.0000 C   0  0  0  0  0  0  0  0  0  0  0  0
   12.4362    3.2927    0.0000 H   0  0  0  0  0  0  0  0  0  0  0  0
   11.6777    3.0477    0.0000 H   0  0  0  0  0  0  0  0  0  0  0  0
   12.8740    1.4718    0.0000 H   0  0  0  0  0  0  0  0  0  0  0  0
   13.4654    0.9375    0.0000 H   0  0  0  0  0  0  0  0  0  0  0  0
   14.0844    3.8251    0.0000 H   0  0  0  0  0  0  0  0  0  0  0  0
   13.3259    3.5801    0.0000 H   0  0  0  0  0  0  0  0  0  0  0  0
   11.1169    1.5162    0.0000 H   0  0  0  0  0  0  0  0  0  0  0  0
   14.2326    0.7730    0.0000 H   0  0  0  0  0  0  0  0  0  0  0  0
   14.9911    1.0180    0.0000 H   0  0  0  0  0  0  0  0  0  0  0  0
   15.4430    3.1263    0.0000 H   0  0  0  0  0  0  0  0  0  0  0  0
   14.8516    3.6606    0.0000 H   0  0  0  0  0  0  0  0  0  0  0  0
   10.7880    2.7603    0.0000 H   0  0  0  0  0  0  0  0  0  0  0  0
   10.0295    2.5153    0.0000 H   0  0  0  0  0  0  0  0  0  0  0  0
   10.0749    0.8539    0.0000 H   0  0  0  0  0  0  0  0  0  0  0  0
    7.5096   -1.1820    0.0000 H   0  0  0  0  0  0  0  0  0  0  0  0
   11.4242    0.5646    0.0000 H   0  0  0  0  0  0  0  0  0  0  0  0
    5.4409    0.3602    0.0000 H   0  0  0  0  0  0  0  0  0  0  0  0
    7.2808    2.1937    0.0000 H   0  0  0  0  0  0  0  0  0  0  0  0
    6.4342    2.4221    0.0000 H   0  0  0  0  0  0  0  0  0  0  0  0
    6.2058    1.5756    0.0000 H   0  0  0  0  0  0  0  0  0  0  0  0
    9.1020   -1.0413    0.0000 H   0  0  0  0  0  0  0  0  0  0  0  0
    9.9211   -0.7285    0.0000 H   0  0  0  0  0  0  0  0  0  0  0  0
    9.6083    0.0906    0.0000 H   0  0  0  0  0  0  0  0  0  0  0  0
    5.7369   -3.2506    0.0000 H   0  0  0  0  0  0  0  0  0  0  0  0
    3.7320   -0.2366    0.0000 H   0  0  0  0  0  0  0  0  0  0  0  0
    3.7320   -3.4766    0.0000 H   0  0  0  0  0  0  0  0  0  0  0  0
    2.3291   -2.6666    0.0000 H   0  0  0  0  0  0  0  0  0  0  0  0
  1 31  1  0  0  0  0
  2 14  1  0  0  0  0
  2 15  1  0  0  0  0
 13  3  1  1  0  0  0
  3 48  1  0  0  0  0
  4 21  2  0  0  0  0
  5 28  2  0  0  0  0
  6 10  1  0  0  0  0
  6 11  1  0  0  0  0
  6 12  1  0  0  0  0
  7 16  1  0  0  0  0
  7 21  1  0  0  0  0
  7 46  1  0  0  0  0
  8 19  1  0  0  0  0
  8 20  1  0  0  0  0
  8 47  1  0  0  0  0
  9 27  1  0  0  0  0
  9 28  1  0  0  0  0
  9 56  1  0  0  0  0
 10 13  1  0  0  0  0
 10 33  1  0  0  0  0
 10 34  1  0  0  0  0
 11 14  1  0  0  0  0
 11 35  1  0  0  0  0
 11 36  1  0  0  0  0
 12 15  1  0  0  0  0
 12 37  1  0  0  0  0
 12 38  1  0  0  0  0
 13 16  1  0  0  0  0
 13 39  1  0  0  0  0
 14 40  1  0  0  0  0
 14 41  1  0  0  0  0
 15 42  1  0  0  0  0
 15 43  1  0  0  0  0
 16 44  1  0  0  0  0
 16 45  1  0  0  0  0
 17 18  1  0  0  0  0
 17 20  2  0  0  0  0
 17 21  1  0  0  0  0
 18 19  2  0  0  0  0
 18 25  1  0  0  0  0
 19 22  1  0  0  0  0
 20 26  1  0  0  0  0
 22 23  2  0  0  0  0
 22 49  1  0  0  0  0
 23 24  1  0  0  0  0
 23 28  1  0  0  0  0
 24 27  2  0  0  0  0
 24 29  1  0  0  0  0
 25 50  1  0  0  0  0
 25 51  1  0  0  0  0
 25 52  1  0  0  0  0
 26 53  1  0  0  0  0
 26 54  1  0  0  0  0
 26 55  1  0  0  0  0
 27 30  1  0  0  0  0
 29 31  2  0  0  0  0
 29 57  1  0  0  0  0
 30 32  2  0  0  0  0
 30 58  1  0  0  0  0
 31 32  1  0  0  0  0
 32 59  1  0  0  0  0
M  END
> <PUBCHEM_COMPOUND_CID>
10138259

> <PUBCHEM_COMPOUND_CANONICALIZED>
1

> <PUBCHEM_CACTVS_COMPLEXITY>
729

> <PUBCHEM_CACTVS_HBOND_ACCEPTOR>
6

> <PUBCHEM_CACTVS_HBOND_DONOR>
4

> <PUBCHEM_CACTVS_ROTATABLE_BOND>
6

> <PUBCHEM_CACTVS_SUBSKEYS>
AAADceB7uQAAAAAAAAAAAAAAAAAAAWLAAAA8QAAAAAAAAFgBwAAAHwAQCAAADBzhng4ywJPJlgCoAyVyVACCgCAlAiAImaE4ZNgKMHrA1ZGHIYhglgDYyccciICOgAAAAAACAAAAAAAAAAQAAAAAAAAAAA==

> <PUBCHEM_IUPAC_OPENEYE_NAME>
5-[(Z)-(5-fluoro-2-oxo-indolin-3-ylidene)methyl]-N-[(2S)-2-hydroxy-3-morpholino-propyl]-2,4-dimethyl-1H-pyrrole-3-carboxamide

> <PUBCHEM_IUPAC_CAS_NAME>
5-[(Z)-(5-fluoro-2-oxo-1H-indol-3-ylidene)methyl]-N-[(2S)-2-hydroxy-3-(4-morpholinyl)propyl]-2,4-dimethyl-1H-pyrrole-3-carboxamide

> <PUBCHEM_IUPAC_NAME_MARKUP>
5-[(<I>Z</I>)-(5-fluoro-2-oxo-1<I>H</I>-indol-3-ylidene)methyl]-<I>N</I>-[(2<I>S</I>)-2-hydroxy-3-morpholin-4-ylpropyl]-2,4-dimethyl-1<I>H</I>-pyrrole-3-carboxamide

> <PUBCHEM_IUPAC_NAME>
5-[(Z)-(5-fluoro-2-oxo-1H-indol-3-ylidene)methyl]-N-[(2S)-2-hydroxy-3-morpholin-4-ylpropyl]-2,4-dimethyl-1H-pyrrole-3-carboxamide

> <PUBCHEM_IUPAC_SYSTEMATIC_NAME>
5-[(Z)-(5-fluoranyl-2-oxidanylidene-1H-indol-3-ylidene)methyl]-2,4-dimethyl-N-[(2S)-3-morpholin-4-yl-2-oxidanyl-propyl]-1H-pyrrole-3-carboxamide

> <PUBCHEM_IUPAC_TRADITIONAL_NAME>
5-[(Z)-(5-fluoro-2-keto-indolin-3-ylidene)methyl]-N-[(2S)-2-hydroxy-3-morpholino-propyl]-2,4-dimethyl-1H-pyrrole-3-carboxamide

> <PUBCHEM_IUPAC_INCHI>
InChI=1S/C23H27FN4O4/c1-13-20(10-18-17-9-15(24)3-4-19(17)27-22(18)30)26-14(2)21(13)23(31)25-11-16(29)12-28-5-7-32-8-6-28/h3-4,9-10,16,26,29H,5-8,11-12H2,1-2H3,(H,25,31)(H,27,30)/b18-10-/t16-/m0/s1

> <PUBCHEM_IUPAC_INCHIKEY>
CTNPALGJUAXMMC-PMFHANACSA-N

> <PUBCHEM_XLOGP3_AA>
0.9

> <PUBCHEM_EXACT_MASS>
442.20163352

> <PUBCHEM_MOLECULAR_FORMULA>
C23H27FN4O4

> <PUBCHEM_MOLECULAR_WEIGHT>
442.5

> <PUBCHEM_OPENEYE_CAN_SMILES>
CC1=C(NC(=C1C(=O)NCC(CN2CCOCC2)O)C)C=C3C4=C(C=CC(=C4)F)NC3=O

> <PUBCHEM_OPENEYE_ISO_SMILES>
CC1=C(NC(=C1C(=O)NC[C@@H](CN2CCOCC2)O)C)/C=C\3/C4=C(C=CC(=C4)F)NC3=O

> <PUBCHEM_CACTVS_TPSA>
107

> <PUBCHEM_MONOISOTOPIC_WEIGHT>
442.20163352

> <PUBCHEM_TOTAL_CHARGE>
0

> <PUBCHEM_HEAVY_ATOM_COUNT>
32

> <PUBCHEM_ATOM_DEF_STEREO_COUNT>
1

> <PUBCHEM_ATOM_UDEF_STEREO_COUNT>
0

> <PUBCHEM_BOND_DEF_STEREO_COUNT>
1

> <PUBCHEM_BOND_UDEF_STEREO_COUNT>
0

> <PUBCHEM_ISOTOPIC_ATOM_COUNT>
0

> <PUBCHEM_COMPONENT_COUNT>
1

> <PUBCHEM_CACTVS_TAUTO_COUNT>
-1

> <PUBCHEM_COORDINATE_TYPE>
1
5
255

> <PUBCHEM_BONDANNOTATIONS>
17  18  8
17  20  8
18  19  8
24  27  8
24  29  8
27  30  8
29  31  8
13  3  5
30  32  8
31  32  8
8  19  8
8  20  8

$$$$
5328112
  -OEChem-11282412102D

 45 47  0     0  0  0  0  0  0999 V2000
    2.7320    1.2010    0.0000 Cl  0  0  0  0  0  0  0  0  0  0  0  0
    5.7320    2.9330    0.0000 Cl  0  0  0  0  0  0  0  0  0  0  0  0
    4.7320   -1.7990    0.0000 O   0  0  0  0  0  0  0  0  0  0  0  0
    3.0000   -1.7990    0.0000 N   0  0  0  0  0  0  0  0  0  0  0  0
    3.8660   -0.2990    0.0000 N   0  0  0  0  0  0  0  0  0  0  0  0
    5.5981   -0.2990    0.0000 N   0  0  0  0  0  0  0  0  0  0  0  0
    7.3580   -0.3337    0.0000 N   0  0  0  0  0  0  0  0  0  0  0  0
    8.2641    1.2218    0.0000 N   0  0  0  0  0  0  0  0  0  0  0  0
    9.1282   -0.3232    0.0000 N   0  0  0  0  0  0  0  0  0  0  0  0
    3.0000   -2.7990    0.0000 C   0  0  0  0  0  0  0  0  0  0  0  0
    3.0000   -3.7990    0.0000 C   0  0  0  0  0  0  0  0  0  0  0  0
    2.0000   -2.7990    0.0000 C   0  0  0  0  0  0  0  0  0  0  0  0
    4.0000   -2.7990    0.0000 C   0  0  0  0  0  0  0  0  0  0  0  0
    3.8660   -1.2990    0.0000 C   0  0  0  0  0  0  0  0  0  0  0  0
    4.7320    1.2010    0.0000 C   0  0  0  0  0  0  0  0  0  0  0  0
    4.7320    0.2010    0.0000 C   0  0  0  0  0  0  0  0  0  0  0  0
    4.2320    2.0670    0.0000 C   0  0  0  0  0  0  0  0  0  0  0  0
    5.5981    1.7010    0.0000 C   0  0  0  0  0  0  0  0  0  0  0  0
    6.4641    1.2010    0.0000 C   0  0  0  0  0  0  0  0  0  0  0  0
    6.4641    0.2010    0.0000 C   0  0  0  0  0  0  0  0  0  0  0  0
    3.2321    2.0671    0.0000 C   0  0  0  0  0  0  0  0  0  0  0  0
    4.7320    2.9330    0.0000 C   0  0  0  0  0  0  0  0  0  0  0  0
    7.3580    1.7356    0.0000 C   0  0  0  0  0  0  0  0  0  0  0  0
    2.7320    2.9330    0.0000 C   0  0  0  0  0  0  0  0  0  0  0  0
    4.2320    3.7990    0.0000 C   0  0  0  0  0  0  0  0  0  0  0  0
    3.2320    3.7990    0.0000 C   0  0  0  0  0  0  0  0  0  0  0  0
    8.2641    0.1801    0.0000 C   0  0  0  0  0  0  0  0  0  0  0  0
    2.3800   -3.7990    0.0000 H   0  0  0  0  0  0  0  0  0  0  0  0
    3.0000   -4.4190    0.0000 H   0  0  0  0  0  0  0  0  0  0  0  0
    3.6200   -3.7990    0.0000 H   0  0  0  0  0  0  0  0  0  0  0  0
    2.0000   -2.1790    0.0000 H   0  0  0  0  0  0  0  0  0  0  0  0
    1.3800   -2.7990    0.0000 H   0  0  0  0  0  0  0  0  0  0  0  0
    2.0000   -3.4190    0.0000 H   0  0  0  0  0  0  0  0  0  0  0  0
    4.0000   -3.4190    0.0000 H   0  0  0  0  0  0  0  0  0  0  0  0
    4.6200   -2.7990    0.0000 H   0  0  0  0  0  0  0  0  0  0  0  0
    4.0000   -2.1790    0.0000 H   0  0  0  0  0  0  0  0  0  0  0  0
    2.4631   -1.4890    0.0000 H   0  0  0  0  0  0  0  0  0  0  0  0
    3.3291    0.0110    0.0000 H   0  0  0  0  0  0  0  0  0  0  0  0
    5.5981    2.3210    0.0000 H   0  0  0  0  0  0  0  0  0  0  0  0
    7.3509    2.3556    0.0000 H   0  0  0  0  0  0  0  0  0  0  0  0
    2.1120    2.9330    0.0000 H   0  0  0  0  0  0  0  0  0  0  0  0
    4.5420    4.3360    0.0000 H   0  0  0  0  0  0  0  0  0  0  0  0
    2.9220    4.3360    0.0000 H   0  0  0  0  0  0  0  0  0  0  0  0
    9.6663   -0.0153    0.0000 H   0  0  0  0  0  0  0  0  0  0  0  0
    9.1258   -0.9432    0.0000 H   0  0  0  0  0  0  0  0  0  0  0  0
  1 21  1  0  0  0  0
  2 22  1  0  0  0  0
  3 14  2  0  0  0  0
  4 10  1  0  0  0  0
  4 14  1  0  0  0  0
  4 37  1  0  0  0  0
  5 14  1  0  0  0  0
  5 16  1  0  0  0  0
  5 38  1  0  0  0  0
  6 16  1  0  0  0  0
  6 20  2  0  0  0  0
  7 20  1  0  0  0  0
  7 27  2  0  0  0  0
  8 23  2  0  0  0  0
  8 27  1  0  0  0  0
  9 27  1  0  0  0  0
  9 44  1  0  0  0  0
  9 45  1  0  0  0  0
 10 11  1  0  0  0  0
 10 12  1  0  0  0  0
 10 13  1  0  0  0  0
 11 28  1  0  0  0  0
 11 29  1  0  0  0  0
 11 30  1  0  0  0  0
 12 31  1  0  0  0  0
 12 32  1  0  0  0  0
 12 33  1  0  0  0  0
 13 34  1  0  0  0  0
 13 35  1  0  0  0  0
 13 36  1  0  0  0  0
 15 16  2  0  0  0  0
 15 17  1  0  0  0  0
 15 18  1  0  0  0  0
 17 21  2  0  0  0  0
 17 22  1  0  0  0  0
 18 19  2  0  0  0  0
 18 39  1  0  0  0  0
 19 20  1  0  0  0  0
 19 23  1  0  0  0  0
 21 24  1  0  0  0  0
 22 25  2  0  0  0  0
 23 40  1  0  0  0  0
 24 26  2  0  0  0  0
 24 41  1  0  0  0  0
 25 26  1  0  0  0  0
 25 42  1  0  0  0  0
 26 43  1  0  0  0  0
M  END
> <PUBCHEM_COMPOUND_CID>
5328112

> <PUBCHEM_COMPOUND_CANONICALIZED>
1

> <PUBCHEM_CACTVS_COMPLEXITY>
521

> <PUBCHEM_CACTVS_HBOND_ACCEPTOR>
5

> <PUBCHEM_CACTVS_HBOND_DONOR>
3

> <PUBCHEM_CACTVS_ROTATABLE_BOND>
3

> <PUBCHEM_CACTVS_SUBSKEYS>
AAADceB7oAAGAAAAAAAAAAAAAAAAAAAAAAA8WIAAAAAAAACx/AAAHgIQAAAADIrBGyQ/sN7IEACoAjJndACCgCkxBaAJ2CAoRpiIKOLB29GEJAholQLIyCcQgMAOgAAAAACBAAAAAAAAAQIAAAAAAAAAAA==

> <PUBCHEM_IUPAC_OPENEYE_NAME>
1-[2-amino-6-(2,6-dichlorophenyl)pyrido[2,3-d]pyrimidin-7-yl]-3-tert-butyl-urea

> <PUBCHEM_IUPAC_CAS_NAME>
1-[2-amino-6-(2,6-dichlorophenyl)-7-pyrido[2,3-d]pyrimidinyl]-3-tert-butylurea

> <PUBCHEM_IUPAC_NAME_MARKUP>
1-[2-amino-6-(2,6-dichlorophenyl)pyrido[2,3-d]pyrimidin-7-yl]-3-<I>tert</I>-butylurea

> <PUBCHEM_IUPAC_NAME>
1-[2-amino-6-(2,6-dichlorophenyl)pyrido[2,3-d]pyrimidin-7-yl]-3-tert-butylurea

> <PUBCHEM_IUPAC_SYSTEMATIC_NAME>
1-[2-azanyl-6-[2,6-bis(chloranyl)phenyl]pyrido[2,3-d]pyrimidin-7-yl]-3-tert-butyl-urea

> <PUBCHEM_IUPAC_TRADITIONAL_NAME>
1-[2-amino-6-(2,6-dichlorophenyl)pyrido[2,3-d]pyrimidin-7-yl]-3-tert-butyl-urea

> <PUBCHEM_IUPAC_INCHI>
InChI=1S/C18H18Cl2N6O/c1-18(2,3)26-17(27)25-15-10(13-11(19)5-4-6-12(13)20)7-9-8-22-16(21)24-14(9)23-15/h4-8H,1-3H3,(H4,21,22,23,24,25,26,27)

> <PUBCHEM_IUPAC_INCHIKEY>
RRWSNCZYJCOEFX-UHFFFAOYSA-N

> <PUBCHEM_XLOGP3_AA>
3.7

> <PUBCHEM_EXACT_MASS>
404.0919146

> <PUBCHEM_MOLECULAR_FORMULA>
C18H18Cl2N6O

> <PUBCHEM_MOLECULAR_WEIGHT>
405.3

> <PUBCHEM_OPENEYE_CAN_SMILES>
CC(C)(C)NC(=O)NC1=C(C=C2C=NC(=NC2=N1)N)C3=C(C=CC=C3Cl)Cl

> <PUBCHEM_OPENEYE_ISO_SMILES>
CC(C)(C)NC(=O)NC1=C(C=C2C=NC(=NC2=N1)N)C3=C(C=CC=C3Cl)Cl

> <PUBCHEM_CACTVS_TPSA>
106

> <PUBCHEM_MONOISOTOPIC_WEIGHT>
404.0919146

> <PUBCHEM_TOTAL_CHARGE>
0

> <PUBCHEM_HEAVY_ATOM_COUNT>
27

> <PUBCHEM_ATOM_DEF_STEREO_COUNT>
0

> <PUBCHEM_ATOM_UDEF_STEREO_COUNT>
0

> <PUBCHEM_BOND_DEF_STEREO_COUNT>
0

> <PUBCHEM_BOND_UDEF_STEREO_COUNT>
0

> <PUBCHEM_ISOTOPIC_ATOM_COUNT>
0

> <PUBCHEM_COMPONENT_COUNT>
1

> <PUBCHEM_CACTVS_TAUTO_COUNT>
42

> <PUBCHEM_COORDINATE_TYPE>
1
5
255

> <PUBCHEM_BONDANNOTATIONS>
15  16  8
15  18  8
17  21  8
17  22  8
18  19  8
19  20  8
19  23  8
21  24  8
22  25  8
24  26  8
25  26  8
6  16  8
6  20  8
7  20  8
7  27  8
8  23  8
8  27  8

$$$$
9797370
  -OEChem-11282412102D

 40 43  0     0  0  0  0  0  0999 V2000
    9.4381   -3.3990    0.0000 F   0  0  0  0  0  0  0  0  0  0  0  0
    2.9383    2.4492    0.0000 O   0  0  0  0  0  0  0  0  0  0  0  0
    2.3053    0.5011    0.0000 O   0  0  0  0  0  0  0  0  0  0  0  0
    6.1197   -1.3560    0.0000 N   0  0  0  0  0  0  0  0  0  0  0  0
    7.1138   -1.3552    0.0000 N   0  0  0  0  0  0  0  0  0  0  0  0
    8.3734   -0.1026    0.0000 N   0  0  0  0  0  0  0  0  0  0  0  0
    6.3101    1.1274    0.0000 C   0  0  0  0  0  0  0  0  0  0  0  0
    6.6191    0.1764    0.0000 C   0  0  0  0  0  0  0  0  0  0  0  0
    5.3101    1.1274    0.0000 C   0  0  0  0  0  0  0  0  0  0  0  0
    5.8101   -0.4114    0.0000 C   0  0  0  0  0  0  0  0  0  0  0  0
    5.0010    0.1764    0.0000 C   0  0  0  0  0  0  0  0  0  0  0  0
    7.4218   -0.4100    0.0000 C   0  0  0  0  0  0  0  0  0  0  0  0
    4.6251    1.9122    0.0000 C   0  0  0  0  0  0  0  0  0  0  0  0
    3.9856   -0.0559    0.0000 C   0  0  0  0  0  0  0  0  0  0  0  0
    3.6046    1.7035    0.0000 C   0  0  0  0  0  0  0  0  0  0  0  0
    3.2827    0.7128    0.0000 C   0  0  0  0  0  0  0  0  0  0  0  0
    9.1154   -0.7731    0.0000 C   0  0  0  0  0  0  0  0  0  0  0  0
    8.9057   -1.7508    0.0000 C   0  0  0  0  0  0  0  0  0  0  0  0
   10.0669   -0.4657    0.0000 C   0  0  0  0  0  0  0  0  0  0  0  0
    3.2510    3.3990    0.0000 C   0  0  0  0  0  0  0  0  0  0  0  0
    2.0000   -0.4511    0.0000 C   0  0  0  0  0  0  0  0  0  0  0  0
    9.6477   -2.4213    0.0000 C   0  0  0  0  0  0  0  0  0  0  0  0
   10.8089   -1.1361    0.0000 C   0  0  0  0  0  0  0  0  0  0  0  0
   10.5993   -2.1139    0.0000 C   0  0  0  0  0  0  0  0  0  0  0  0
    6.9165    1.2563    0.0000 H   0  0  0  0  0  0  0  0  0  0  0  0
    6.2452    1.7440    0.0000 H   0  0  0  0  0  0  0  0  0  0  0  0
    4.8235    2.4996    0.0000 H   0  0  0  0  0  0  0  0  0  0  0  0
    3.8009   -0.6477    0.0000 H   0  0  0  0  0  0  0  0  0  0  0  0
    5.7561   -1.8582    0.0000 H   0  0  0  0  0  0  0  0  0  0  0  0
    8.5033    0.5036    0.0000 H   0  0  0  0  0  0  0  0  0  0  0  0
    8.3158   -1.9414    0.0000 H   0  0  0  0  0  0  0  0  0  0  0  0
   10.1969    0.1405    0.0000 H   0  0  0  0  0  0  0  0  0  0  0  0
    3.8399    3.2052    0.0000 H   0  0  0  0  0  0  0  0  0  0  0  0
    3.4448    3.9880    0.0000 H   0  0  0  0  0  0  0  0  0  0  0  0
    2.6621    3.5929    0.0000 H   0  0  0  0  0  0  0  0  0  0  0  0
    1.4096   -0.2618    0.0000 H   0  0  0  0  0  0  0  0  0  0  0  0
    1.8107   -1.0415    0.0000 H   0  0  0  0  0  0  0  0  0  0  0  0
    2.5904   -0.6404    0.0000 H   0  0  0  0  0  0  0  0  0  0  0  0
   11.3989   -0.9455    0.0000 H   0  0  0  0  0  0  0  0  0  0  0  0
   11.0594   -2.5295    0.0000 H   0  0  0  0  0  0  0  0  0  0  0  0
  1 22  1  0  0  0  0
  2 15  1  0  0  0  0
  2 20  1  0  0  0  0
  3 16  1  0  0  0  0
  3 21  1  0  0  0  0
  4  5  1  0  0  0  0
  4 10  1  0  0  0  0
  4 29  1  0  0  0  0
  5 12  2  0  0  0  0
  6 12  1  0  0  0  0
  6 17  1  0  0  0  0
  6 30  1  0  0  0  0
  7  8  1  0  0  0  0
  7  9  1  0  0  0  0
  7 25  1  0  0  0  0
  7 26  1  0  0  0  0
  8 10  2  0  0  0  0
  8 12  1  0  0  0  0
  9 11  1  0  0  0  0
  9 13  2  0  0  0  0
 10 11  1  0  0  0  0
 11 14  2  0  0  0  0
 13 15  1  0  0  0  0
 13 27  1  0  0  0  0
 14 16  1  0  0  0  0
 14 28  1  0  0  0  0
 15 16  2  0  0  0  0
 17 18  2  0  0  0  0
 17 19  1  0  0  0  0
 18 22  1  0  0  0  0
 18 31  1  0  0  0  0
 19 23  2  0  0  0  0
 19 32  1  0  0  0  0
 20 33  1  0  0  0  0
 20 34  1  0  0  0  0
 20 35  1  0  0  0  0
 21 36  1  0  0  0  0
 21 37  1  0  0  0  0
 21 38  1  0  0  0  0
 22 24  2  0  0  0  0
 23 24  1  0  0  0  0
 23 39  1  0  0  0  0
 24 40  1  0  0  0  0
M  END
> <PUBCHEM_COMPOUND_CID>
9797370

> <PUBCHEM_COMPOUND_CANONICALIZED>
1

> <PUBCHEM_CACTVS_COMPLEXITY>
441

> <PUBCHEM_CACTVS_HBOND_ACCEPTOR>
5

> <PUBCHEM_CACTVS_HBOND_DONOR>
2

> <PUBCHEM_CACTVS_ROTATABLE_BOND>
4

> <PUBCHEM_CACTVS_SUBSKEYS>
AAADceB7MQAAAAAAAAAAAAAAAAAAAeIAAAAwYAAAAAAWAGAB0AAAHwAYAAAADAyBngoz9pLjBACiAyZiYACSDAIhIgAduSAm7JiNJuLE+duEtCp02BPK6Cew0PEOoAABAAAQQABAAAIAACCAASAACQAAAA==

> <PUBCHEM_IUPAC_OPENEYE_NAME>
N-(3-fluorophenyl)-6,7-dimethoxy-1,4-dihydroindeno[1,2-c]pyrazol-3-amine

> <PUBCHEM_IUPAC_CAS_NAME>
N-(3-fluorophenyl)-6,7-dimethoxy-1,4-dihydroindeno[1,2-c]pyrazol-3-amine

> <PUBCHEM_IUPAC_NAME_MARKUP>
<I>N</I>-(3-fluorophenyl)-6,7-dimethoxy-1,4-dihydroindeno[1,2-c]pyrazol-3-amine

> <PUBCHEM_IUPAC_NAME>
N-(3-fluorophenyl)-6,7-dimethoxy-1,4-dihydroindeno[1,2-c]pyrazol-3-amine

> <PUBCHEM_IUPAC_SYSTEMATIC_NAME>
N-(3-fluorophenyl)-6,7-dimethoxy-1,4-dihydroindeno[1,2-c]pyrazol-3-amine

> <PUBCHEM_IUPAC_TRADITIONAL_NAME>
(6,7-dimethoxy-1,4-dihydroindeno[1,2-c]pyrazol-3-yl)-(3-fluorophenyl)amine

> <PUBCHEM_IUPAC_INCHI>
InChI=1S/C18H16FN3O2/c1-23-15-7-10-6-14-17(13(10)9-16(15)24-2)21-22-18(14)20-12-5-3-4-11(19)8-12/h3-5,7-9H,6H2,1-2H3,(H2,20,21,22)

> <PUBCHEM_IUPAC_INCHIKEY>
ZDNURMVOKAERHZ-UHFFFAOYSA-N

> <PUBCHEM_XLOGP3_AA>
3.8

> <PUBCHEM_EXACT_MASS>
325.12265492

> <PUBCHEM_MOLECULAR_FORMULA>
C18H16FN3O2

> <PUBCHEM_MOLECULAR_WEIGHT>
325.3

> <PUBCHEM_OPENEYE_CAN_SMILES>
COC1=C(C=C2C(=C1)CC3=C2NN=C3NC4=CC(=CC=C4)F)OC

> <PUBCHEM_OPENEYE_ISO_SMILES>
COC1=C(C=C2C(=C1)CC3=C2NN=C3NC4=CC(=CC=C4)F)OC

> <PUBCHEM_CACTVS_TPSA>
59.2

> <PUBCHEM_MONOISOTOPIC_WEIGHT>
325.12265492

> <PUBCHEM_TOTAL_CHARGE>
0

> <PUBCHEM_HEAVY_ATOM_COUNT>
24

> <PUBCHEM_ATOM_DEF_STEREO_COUNT>
0

> <PUBCHEM_ATOM_UDEF_STEREO_COUNT>
0

> <PUBCHEM_BOND_DEF_STEREO_COUNT>
0

> <PUBCHEM_BOND_UDEF_STEREO_COUNT>
0

> <PUBCHEM_ISOTOPIC_ATOM_COUNT>
0

> <PUBCHEM_COMPONENT_COUNT>
1

> <PUBCHEM_CACTVS_TAUTO_COUNT>
5

> <PUBCHEM_COORDINATE_TYPE>
1
5
255

> <PUBCHEM_BONDANNOTATIONS>
11  14  8
13  15  8
14  16  8
15  16  8
17  18  8
17  19  8
18  22  8
19  23  8
22  24  8
23  24  8
4  10  8
4  5  8
5  12  8
8  10  8
8  12  8
9  11  8
9  13  8

$$$$
3894
  -OEChem-11282412102D

 47 49  0     1  0  0  0  0  0999 V2000
    8.0622    1.5950    0.0000 O   0  0  0  0  0  0  0  0  0  0  0  0
    2.8660    1.5950    0.0000 O   0  0  0  0  0  0  0  0  0  0  0  0
    5.4641   -3.9050    0.0000 O   0  0  0  0  0  0  0  0  0  0  0  0
    4.5981    3.5950    0.0000 O   0  0  0  0  0  0  0  0  0  0  0  0
    2.8660   -2.4050    0.0000 O   0  0  0  0  0  0  0  0  0  0  0  0
    3.7320   -3.9050    0.0000 O   0  0  0  0  0  0  0  0  0  0  0  0
    5.4641    0.0950    0.0000 N   0  0  3  0  0  0  0  0  0  0  0  0
    6.3301    0.5950    0.0000 C   0  0  0  0  0  0  0  0  0  0  0  0
    4.5981    0.5950    0.0000 C   0  0  0  0  0  0  0  0  0  0  0  0
    5.4641   -0.9050    0.0000 C   0  0  0  0  0  0  0  0  0  0  0  0
    6.3301    1.5950    0.0000 C   0  0  0  0  0  0  0  0  0  0  0  0
    3.7320    0.0950    0.0000 C   0  0  0  0  0  0  0  0  0  0  0  0
    4.5981   -1.4050    0.0000 C   0  0  0  0  0  0  0  0  0  0  0  0
    6.3301   -1.4050    0.0000 C   0  0  0  0  0  0  0  0  0  0  0  0
    7.1962    2.0950    0.0000 C   0  0  0  0  0  0  0  0  0  0  0  0
    5.4641    2.0950    0.0000 C   0  0  0  0  0  0  0  0  0  0  0  0
    2.8660    0.5950    0.0000 C   0  0  0  0  0  0  0  0  0  0  0  0
    4.5981   -2.4050    0.0000 C   0  0  0  0  0  0  0  0  0  0  0  0
    3.7320   -0.9050    0.0000 C   0  0  0  0  0  0  0  0  0  0  0  0
    6.3301   -2.4050    0.0000 C   0  0  0  0  0  0  0  0  0  0  0  0
    5.4641   -2.9050    0.0000 C   0  0  0  0  0  0  0  0  0  0  0  0
    5.4641    3.0950    0.0000 C   0  0  0  0  0  0  0  0  0  0  0  0
    7.1962    3.0950    0.0000 C   0  0  0  0  0  0  0  0  0  0  0  0
    2.0000    0.0950    0.0000 C   0  0  0  0  0  0  0  0  0  0  0  0
    2.8660   -1.4050    0.0000 C   0  0  0  0  0  0  0  0  0  0  0  0
    6.3301    3.5950    0.0000 C   0  0  0  0  0  0  0  0  0  0  0  0
    2.0000   -0.9050    0.0000 C   0  0  0  0  0  0  0  0  0  0  0  0
    3.7320   -2.9050    0.0000 C   0  0  0  0  0  0  0  0  0  0  0  0
    6.5422    0.0124    0.0000 H   0  0  0  0  0  0  0  0  0  0  0  0
    6.9407    0.7027    0.0000 H   0  0  0  0  0  0  0  0  0  0  0  0
    4.9966    1.0700    0.0000 H   0  0  0  0  0  0  0  0  0  0  0  0
    4.1996    1.0700    0.0000 H   0  0  0  0  0  0  0  0  0  0  0  0
    4.0611   -1.0950    0.0000 H   0  0  0  0  0  0  0  0  0  0  0  0
    6.8671   -1.0950    0.0000 H   0  0  0  0  0  0  0  0  0  0  0  0
    4.9272    1.7850    0.0000 H   0  0  0  0  0  0  0  0  0  0  0  0
    4.2690   -1.2150    0.0000 H   0  0  0  0  0  0  0  0  0  0  0  0
    6.8671   -2.7150    0.0000 H   0  0  0  0  0  0  0  0  0  0  0  0
    7.7331    3.4050    0.0000 H   0  0  0  0  0  0  0  0  0  0  0  0
    1.4631    0.4050    0.0000 H   0  0  0  0  0  0  0  0  0  0  0  0
    2.8660   -2.0250    0.0000 H   0  0  0  0  0  0  0  0  0  0  0  0
    6.3301    4.2150    0.0000 H   0  0  0  0  0  0  0  0  0  0  0  0
    1.4631   -1.2150    0.0000 H   0  0  0  0  0  0  0  0  0  0  0  0
    8.5991    1.9050    0.0000 H   0  0  0  0  0  0  0  0  0  0  0  0
    2.3291    1.9050    0.0000 H   0  0  0  0  0  0  0  0  0  0  0  0
    6.0010   -4.2150    0.0000 H   0  0  0  0  0  0  0  0  0  0  0  0
    4.5981    4.2150    0.0000 H   0  0  0  0  0  0  0  0  0  0  0  0
    2.3291   -2.7150    0.0000 H   0  0  0  0  0  0  0  0  0  0  0  0
  1 15  1  0  0  0  0
  1 43  1  0  0  0  0
  2 17  1  0  0  0  0
  2 44  1  0  0  0  0
  3 21  1  0  0  0  0
  3 45  1  0  0  0  0
  4 22  1  0  0  0  0
  4 46  1  0  0  0  0
  5 28  1  0  0  0  0
  5 47  1  0  0  0  0
  6 28  2  0  0  0  0
  7  8  1  0  0  0  0
  7  9  1  0  0  0  0
  7 10  1  0  0  0  0
  8 11  1  0  0  0  0
  8 29  1  0  0  0  0
  8 30  1  0  0  0  0
  9 12  1  0  0  0  0
  9 31  1  0  0  0  0
  9 32  1  0  0  0  0
 10 13  2  0  0  0  0
 10 14  1  0  0  0  0
 11 15  2  0  0  0  0
 11 16  1  0  0  0  0
 12 17  1  0  0  0  0
 12 19  2  0  0  0  0
 13 18  1  0  0  0  0
 13 33  1  0  0  0  0
 14 20  2  0  0  0  0
 14 34  1  0  0  0  0
 15 23  1  0  0  0  0
 16 22  2  0  0  0  0
 16 35  1  0  0  0  0
 17 24  2  0  0  0  0
 18 21  2  0  0  0  0
 18 28  1  0  0  0  0
 19 25  1  0  0  0  0
 19 36  1  0  0  0  0
 20 21  1  0  0  0  0
 20 37  1  0  0  0  0
 22 26  1  0  0  0  0
 23 26  2  0  0  0  0
 23 38  1  0  0  0  0
 24 27  1  0  0  0  0
 24 39  1  0  0  0  0
 25 27  2  0  0  0  0
 25 40  1  0  0  0  0
 26 41  1  0  0  0  0
 27 42  1  0  0  0  0
M  END
> <PUBCHEM_COMPOUND_CID>
3894

> <PUBCHEM_COMPOUND_CANONICALIZED>
1

> <PUBCHEM_CACTVS_COMPLEXITY>
517

> <PUBCHEM_CACTVS_HBOND_ACCEPTOR>
7

> <PUBCHEM_CACTVS_HBOND_DONOR>
5

> <PUBCHEM_CACTVS_ROTATABLE_BOND>
6

> <PUBCHEM_CACTVS_SUBSKEYS>
AAADceB6OAAAAAAAAAAAAAAAAAAAAAAAAAAwYMAAAAAAAAABUAAAHgAACAAADAzBmAQwzoMAAgCIAiTSSACCAAAlIgAIiAEObMgIJzbClZOEcUhn4BHI2Yf8yDCOAUABQAAIAAACgAKAABAAAAAAAAAAAA==

> <PUBCHEM_IUPAC_OPENEYE_NAME>
5-[(2,5-dihydroxyphenyl)methyl-[(2-hydroxyphenyl)methyl]amino]-2-hydroxy-benzoic acid

> <PUBCHEM_IUPAC_CAS_NAME>
5-[(2,5-dihydroxyphenyl)methyl-[(2-hydroxyphenyl)methyl]amino]-2-hydroxybenzoic acid

> <PUBCHEM_IUPAC_NAME_MARKUP>
5-[(2,5-dihydroxyphenyl)methyl-[(2-hydroxyphenyl)methyl]amino]-2-hydroxybenzoic acid

> <PUBCHEM_IUPAC_NAME>
5-[(2,5-dihydroxyphenyl)methyl-[(2-hydroxyphenyl)methyl]amino]-2-hydroxybenzoic acid

> <PUBCHEM_IUPAC_SYSTEMATIC_NAME>
5-[[2,5-bis(oxidanyl)phenyl]methyl-[(2-hydroxyphenyl)methyl]amino]-2-oxidanyl-benzoic acid

> <PUBCHEM_IUPAC_TRADITIONAL_NAME>
5-[(2,5-dihydroxybenzyl)-salicyl-amino]-2-hydroxy-benzoic acid

> <PUBCHEM_IUPAC_INCHI>
InChI=1S/C21H19NO6/c23-16-6-8-19(25)14(9-16)12-22(11-13-3-1-2-4-18(13)24)15-5-7-20(26)17(10-15)21(27)28/h1-10,23-26H,11-12H2,(H,27,28)

> <PUBCHEM_IUPAC_INCHIKEY>
ULTTYPMRMMDONC-UHFFFAOYSA-N

> <PUBCHEM_XLOGP3_AA>
3.7

> <PUBCHEM_EXACT_MASS>
381.12123733

> <PUBCHEM_MOLECULAR_FORMULA>
C21H19NO6

> <PUBCHEM_MOLECULAR_WEIGHT>
381.4

> <PUBCHEM_OPENEYE_CAN_SMILES>
C1=CC=C(C(=C1)CN(CC2=C(C=CC(=C2)O)O)C3=CC(=C(C=C3)O)C(=O)O)O

> <PUBCHEM_OPENEYE_ISO_SMILES>
C1=CC=C(C(=C1)CN(CC2=C(C=CC(=C2)O)O)C3=CC(=C(C=C3)O)C(=O)O)O

> <PUBCHEM_CACTVS_TPSA>
122

> <PUBCHEM_MONOISOTOPIC_WEIGHT>
381.12123733

> <PUBCHEM_TOTAL_CHARGE>
0

> <PUBCHEM_HEAVY_ATOM_COUNT>
28

> <PUBCHEM_ATOM_DEF_STEREO_COUNT>
0

> <PUBCHEM_ATOM_UDEF_STEREO_COUNT>
0

> <PUBCHEM_BOND_DEF_STEREO_COUNT>
0

> <PUBCHEM_BOND_UDEF_STEREO_COUNT>
0

> <PUBCHEM_ISOTOPIC_ATOM_COUNT>
0

> <PUBCHEM_COMPONENT_COUNT>
1

> <PUBCHEM_CACTVS_TAUTO_COUNT>
-1

> <PUBCHEM_COORDINATE_TYPE>
1
5
255

> <PUBCHEM_BONDANNOTATIONS>
10  13  8
10  14  8
11  15  8
11  16  8
12  17  8
12  19  8
13  18  8
14  20  8
15  23  8
16  22  8
17  24  8
18  21  8
19  25  8
20  21  8
22  26  8
23  26  8
24  27  8
25  27  8

$$$$
2052
  -OEChem-11282412102D

 20 20  0     0  0  0  0  0  0999 V2000
    4.2690    2.3450    0.0000 O   0  0  0  0  0  0  0  0  0  0  0  0
    2.5369    1.3450    0.0000 O   0  0  0  0  0  0  0  0  0  0  0  0
    7.7331   -2.6550    0.0000 N   0  0  0  0  0  0  0  0  0  0  0  0
    4.2690   -2.6550    0.0000 N   0  0  0  0  0  0  0  0  0  0  0  0
    5.1350   -0.1550    0.0000 C   0  0  0  0  0  0  0  0  0  0  0  0
    5.1350    0.8450    0.0000 C   0  0  0  0  0  0  0  0  0  0  0  0
    4.2690   -0.6550    0.0000 C   0  0  0  0  0  0  0  0  0  0  0  0
    4.2690    1.3450    0.0000 C   0  0  0  0  0  0  0  0  0  0  0  0
    3.4030    0.8450    0.0000 C   0  0  0  0  0  0  0  0  0  0  0  0
    3.4030   -0.1550    0.0000 C   0  0  0  0  0  0  0  0  0  0  0  0
    6.0010   -0.6550    0.0000 C   0  0  0  0  0  0  0  0  0  0  0  0
    6.0010   -1.6550    0.0000 C   0  0  0  0  0  0  0  0  0  0  0  0
    6.8671   -2.1550    0.0000 C   0  0  0  0  0  0  0  0  0  0  0  0
    5.1350   -2.1550    0.0000 C   0  0  0  0  0  0  0  0  0  0  0  0
    5.6720    1.1550    0.0000 H   0  0  0  0  0  0  0  0  0  0  0  0
    4.2690   -1.2750    0.0000 H   0  0  0  0  0  0  0  0  0  0  0  0
    2.8660   -0.4650    0.0000 H   0  0  0  0  0  0  0  0  0  0  0  0
    6.5380   -0.3450    0.0000 H   0  0  0  0  0  0  0  0  0  0  0  0
    4.8059    2.6550    0.0000 H   0  0  0  0  0  0  0  0  0  0  0  0
    2.0000    1.0350    0.0000 H   0  0  0  0  0  0  0  0  0  0  0  0
  1  8  1  0  0  0  0
  1 19  1  0  0  0  0
  2  9  1  0  0  0  0
  2 20  1  0  0  0  0
  3 13  3  0  0  0  0
  4 14  3  0  0  0  0
  5  6  2  0  0  0  0
  5  7  1  0  0  0  0
  5 11  1  0  0  0  0
  6  8  1  0  0  0  0
  6 15  1  0  0  0  0
  7 10  2  0  0  0  0
  7 16  1  0  0  0  0
  8  9  2  0  0  0  0
  9 10  1  0  0  0  0
 10 17  1  0  0  0  0
 11 12  2  0  0  0  0
 11 18  1  0  0  0  0
 12 13  1  0  0  0  0
 12 14  1  0  0  0  0
M  END
> <PUBCHEM_COMPOUND_CID>
2052

> <PUBCHEM_COMPOUND_CANONICALIZED>
1

> <PUBCHEM_CACTVS_COMPLEXITY>
313

> <PUBCHEM_CACTVS_HBOND_ACCEPTOR>
4

> <PUBCHEM_CACTVS_HBOND_DONOR>
2

> <PUBCHEM_CACTVS_ROTATABLE_BOND>
1

> <PUBCHEM_CACTVS_SUBSKEYS>
AAADcYBzMAAAAAAAAAAAAAAAAAAAAAAAAAAwAAAAAAAAAAABAAAAHgAACAAADASBmAAwBoAAAgCQBiBCAAAiAAAgIAAIiAAGiIgJpiKCERKAcAEkwBEJmAeAwBAOIAABAAAAQABAAAIAAACAAAAAAAAAAA==

> <PUBCHEM_IUPAC_OPENEYE_NAME>
2-[(3,4-dihydroxyphenyl)methylene]propanedinitrile

> <PUBCHEM_IUPAC_CAS_NAME>
2-[(3,4-dihydroxyphenyl)methylidene]propanedinitrile

> <PUBCHEM_IUPAC_NAME_MARKUP>
2-[(3,4-dihydroxyphenyl)methylidene]propanedinitrile

> <PUBCHEM_IUPAC_NAME>
2-[(3,4-dihydroxyphenyl)methylidene]propanedinitrile

> <PUBCHEM_IUPAC_SYSTEMATIC_NAME>
2-[[3,4-bis(oxidanyl)phenyl]methylidene]propanedinitrile

> <PUBCHEM_IUPAC_TRADITIONAL_NAME>
2-(3,4-dihydroxybenzylidene)malononitrile

> <PUBCHEM_IUPAC_INCHI>
InChI=1S/C10H6N2O2/c11-5-8(6-12)3-7-1-2-9(13)10(14)4-7/h1-4,13-14H

> <PUBCHEM_IUPAC_INCHIKEY>
VTJXFTPMFYAJJU-UHFFFAOYSA-N

> <PUBCHEM_XLOGP3>
1.3

> <PUBCHEM_EXACT_MASS>
186.042927438

> <PUBCHEM_MOLECULAR_FORMULA>
C10H6N2O2

> <PUBCHEM_MOLECULAR_WEIGHT>
186.17

> <PUBCHEM_OPENEYE_CAN_SMILES>
C1=CC(=C(C=C1C=C(C#N)C#N)O)O

> <PUBCHEM_OPENEYE_ISO_SMILES>
C1=CC(=C(C=C1C=C(C#N)C#N)O)O

> <PUBCHEM_CACTVS_TPSA>
88

> <PUBCHEM_MONOISOTOPIC_WEIGHT>
186.042927438

> <PUBCHEM_TOTAL_CHARGE>
0

> <PUBCHEM_HEAVY_ATOM_COUNT>
14

> <PUBCHEM_ATOM_DEF_STEREO_COUNT>
0

> <PUBCHEM_ATOM_UDEF_STEREO_COUNT>
0

> <PUBCHEM_BOND_DEF_STEREO_COUNT>
0

> <PUBCHEM_BOND_UDEF_STEREO_COUNT>
0

> <PUBCHEM_ISOTOPIC_ATOM_COUNT>
0

> <PUBCHEM_COMPONENT_COUNT>
1

> <PUBCHEM_CACTVS_TAUTO_COUNT>
-1

> <PUBCHEM_COORDINATE_TYPE>
1
5
255

> <PUBCHEM_BONDANNOTATIONS>
5  6  8
5  7  8
6  8  8
7  10  8
8  9  8
9  10  8

$$$$
57928403
  -OEChem-11282412102D

 46 50  0     1  0  0  0  0  0999 V2000
    3.9801    3.3372    0.0000 O   0  0  0  0  0  0  0  0  0  0  0  0
    2.3105   -1.4663    0.0000 O   0  0  0  0  0  0  0  0  0  0  0  0
    3.6378   -0.3535    0.0000 N   0  0  0  0  0  0  0  0  0  0  0  0
    5.5652   -2.6523    0.0000 N   0  0  0  0  0  0  0  0  0  0  0  0
    6.8284   -1.3383    0.0000 N   0  0  0  0  0  0  0  0  0  0  0  0
    2.6106   -3.1721    0.0000 N   0  0  0  0  0  0  0  0  0  0  0  0
    4.8163    0.8889    0.0000 C   0  0  2  0  0  0  0  0  0  0  0  0
    3.1439    0.8889    0.0000 C   0  0  1  0  0  0  0  0  0  0  0  0
    3.9801    2.3372    0.0000 C   0  0  0  0  0  0  0  0  0  0  0  0
    3.2890    0.4538    0.0000 C   0  0  0  0  0  0  0  0  0  0  0  0
    3.9801    0.5861    0.0000 C   0  0  0  0  0  0  0  0  0  0  0  0
    4.8163    1.8544    0.0000 C   0  0  0  0  0  0  0  0  0  0  0  0
    3.1439    1.8544    0.0000 C   0  0  0  0  0  0  0  0  0  0  0  0
    4.1947   -0.0230    0.0000 C   0  0  0  0  0  0  0  0  0  0  0  0
    2.3071    0.4061    0.0000 C   0  0  0  0  0  0  0  0  0  0  0  0
    3.2890    1.4991    0.0000 C   0  0  0  0  0  0  0  0  0  0  0  0
    4.2802   -1.1197    0.0000 C   0  0  0  0  0  0  0  0  0  0  0  0
    5.2651   -0.9465    0.0000 C   0  0  0  0  0  0  0  0  0  0  0  0
    3.9378   -2.0593    0.0000 C   0  0  0  0  0  0  0  0  0  0  0  0
    5.9076   -1.7128    0.0000 C   0  0  0  0  0  0  0  0  0  0  0  0
    5.7944   -0.1050    0.0000 C   0  0  0  0  0  0  0  0  0  0  0  0
    4.5803   -2.8256    0.0000 C   0  0  0  0  0  0  0  0  0  0  0  0
    2.9530   -2.2326    0.0000 C   0  0  0  0  0  0  0  0  0  0  0  0
    6.7586   -0.3467    0.0000 C   0  0  0  0  0  0  0  0  0  0  0  0
    5.4173    0.2879    0.0000 H   0  0  0  0  0  0  0  0  0  0  0  0
    2.5428    1.4899    0.0000 H   0  0  0  0  0  0  0  0  0  0  0  0
    3.1549   -0.1515    0.0000 H   0  0  0  0  0  0  0  0  0  0  0  0
    3.4184    0.3237    0.0000 H   0  0  0  0  0  0  0  0  0  0  0  0
    5.4268    1.7468    0.0000 H   0  0  0  0  0  0  0  0  0  0  0  0
    5.0283    2.4370    0.0000 H   0  0  0  0  0  0  0  0  0  0  0  0
    2.9318    2.4370    0.0000 H   0  0  0  0  0  0  0  0  0  0  0  0
    2.5333    1.7468    0.0000 H   0  0  0  0  0  0  0  0  0  0  0  0
    3.8852   -0.5603    0.0000 H   0  0  0  0  0  0  0  0  0  0  0  0
    4.7198   -0.3526    0.0000 H   0  0  0  0  0  0  0  0  0  0  0  0
    1.8258    0.7970    0.0000 H   0  0  0  0  0  0  0  0  0  0  0  0
    2.1139   -0.1830    0.0000 H   0  0  0  0  0  0  0  0  0  0  0  0
    2.9454    2.0151    0.0000 H   0  0  0  0  0  0  0  0  0  0  0  0
    2.6956    1.3196    0.0000 H   0  0  0  0  0  0  0  0  0  0  0  0
    3.0271   -0.4609    0.0000 H   0  0  0  0  0  0  0  0  0  0  0  0
    4.5170    3.6472    0.0000 H   0  0  0  0  0  0  0  0  0  0  0  0
    5.5633    0.4703    0.0000 H   0  0  0  0  0  0  0  0  0  0  0  0
    4.3680   -3.4081    0.0000 H   0  0  0  0  0  0  0  0  0  0  0  0
    7.3547   -1.6662    0.0000 H   0  0  0  0  0  0  0  0  0  0  0  0
    7.2337    0.0516    0.0000 H   0  0  0  0  0  0  0  0  0  0  0  0
    3.0089   -3.6472    0.0000 H   0  0  0  0  0  0  0  0  0  0  0  0
    2.0000   -3.2796    0.0000 H   0  0  0  0  0  0  0  0  0  0  0  0
  1  9  1  0  0  0  0
  1 40  1  0  0  0  0
  2 23  2  0  0  0  0
  3 11  1  0  0  0  0
  3 17  1  0  0  0  0
  3 39  1  0  0  0  0
  4 20  2  0  0  0  0
  4 22  1  0  0  0  0
  5 20  1  0  0  0  0
  5 24  1  0  0  0  0
  5 43  1  0  0  0  0
  6 23  1  0  0  0  0
  6 45  1  0  0  0  0
  6 46  1  0  0  0  0
  7 11  1  0  0  0  0
  7 12  1  0  0  0  0
  7 14  1  0  0  0  0
  7 25  1  1  0  0  0
  8 11  1  0  0  0  0
  8 13  1  0  0  0  0
  8 15  1  0  0  0  0
  8 26  1  1  0  0  0
  9 12  1  0  0  0  0
  9 13  1  0  0  0  0
  9 16  1  0  0  0  0
 10 14  1  0  0  0  0
 10 15  1  0  0  0  0
 10 16  1  0  0  0  0
 10 27  1  0  0  0  0
 11 28  1  0  0  0  0
 12 29  1  0  0  0  0
 12 30  1  0  0  0  0
 13 31  1  0  0  0  0
 13 32  1  0  0  0  0
 14 33  1  0  0  0  0
 14 34  1  0  0  0  0
 15 35  1  0  0  0  0
 15 36  1  0  0  0  0
 16 37  1  0  0  0  0
 16 38  1  0  0  0  0
 17 18  2  0  0  0  0
 17 19  1  0  0  0  0
 18 20  1  0  0  0  0
 18 21  1  0  0  0  0
 19 22  2  0  0  0  0
 19 23  1  0  0  0  0
 21 24  2  0  0  0  0
 21 41  1  0  0  0  0
 22 42  1  0  0  0  0
 24 44  1  0  0  0  0
M  END
> <PUBCHEM_COMPOUND_CID>
57928403

> <PUBCHEM_COMPOUND_CANONICALIZED>
1

> <PUBCHEM_CACTVS_COMPLEXITY>
525

> <PUBCHEM_CACTVS_HBOND_ACCEPTOR>
4

> <PUBCHEM_CACTVS_HBOND_DONOR>
4

> <PUBCHEM_CACTVS_ROTATABLE_BOND>
3

> <PUBCHEM_CACTVS_SUBSKEYS>
AAADceB7sAAAAAAAAAAAAAAAAAAAAWAAAAA8YMGCAAAAAFgB+AAAHgAQCAAADWzBmwQ98N7JkgCoAjd3dACCgCm1AqAJ2aE4ZNiIKPrA3NGEZYhskALIyee4yfAOAAAAAAAAAAAQgAYAAAQAAAAAAAAAAA==

> <PUBCHEM_IUPAC_OPENEYE_NAME>
4-[[(1R,3S)-5-hydroxy-2-adamantyl]amino]-1H-pyrrolo[2,3-b]pyridine-5-carboxamide

> <PUBCHEM_IUPAC_CAS_NAME>
4-[[(1R,3S)-5-hydroxy-2-adamantyl]amino]-1H-pyrrolo[2,3-b]pyridine-5-carboxamide

> <PUBCHEM_IUPAC_NAME_MARKUP>
4-[[(1<I>R</I>,3<I>S</I>)-5-hydroxy-2-adamantyl]amino]-1<I>H</I>-pyrrolo[2,3-b]pyridine-5-carboxamide

> <PUBCHEM_IUPAC_NAME>
4-[[(1R,3S)-5-hydroxy-2-adamantyl]amino]-1H-pyrrolo[2,3-b]pyridine-5-carboxamide

> <PUBCHEM_IUPAC_SYSTEMATIC_NAME>
4-[[(1R,3S)-5-oxidanyl-2-adamantyl]amino]-1H-pyrrolo[2,3-b]pyridine-5-carboxamide

> <PUBCHEM_IUPAC_TRADITIONAL_NAME>
4-[[(1R,3S)-5-hydroxy-2-adamantyl]amino]-1H-pyrrolo[2,3-b]pyridine-5-carboxamide

> <PUBCHEM_IUPAC_INCHI>
InChI=1S/C18H22N4O2/c19-16(23)13-8-21-17-12(1-2-20-17)15(13)22-14-10-3-9-4-11(14)7-18(24,5-9)6-10/h1-2,8-11,14,24H,3-7H2,(H2,19,23)(H2,20,21,22)/t9?,10-,11+,14?,18?

> <PUBCHEM_IUPAC_INCHIKEY>
DREIJXJRTLTGJC-JQCLMNFQSA-N

> <PUBCHEM_XLOGP3_AA>
1.9

> <PUBCHEM_EXACT_MASS>
326.17427596

> <PUBCHEM_MOLECULAR_FORMULA>
C18H22N4O2

> <PUBCHEM_MOLECULAR_WEIGHT>
326.4

> <PUBCHEM_OPENEYE_CAN_SMILES>
C1C2CC3CC(C2)(CC1C3NC4=C5C=CNC5=NC=C4C(=O)N)O

> <PUBCHEM_OPENEYE_ISO_SMILES>
C1[C@@H]2CC3(C[C@@H](C2NC4=C5C=CNC5=NC=C4C(=O)N)CC1C3)O

> <PUBCHEM_CACTVS_TPSA>
104

> <PUBCHEM_MONOISOTOPIC_WEIGHT>
326.17427596

> <PUBCHEM_TOTAL_CHARGE>
0

> <PUBCHEM_HEAVY_ATOM_COUNT>
24

> <PUBCHEM_ATOM_DEF_STEREO_COUNT>
2

> <PUBCHEM_ATOM_UDEF_STEREO_COUNT>
0

> <PUBCHEM_BOND_DEF_STEREO_COUNT>
0

> <PUBCHEM_BOND_UDEF_STEREO_COUNT>
0

> <PUBCHEM_ISOTOPIC_ATOM_COUNT>
0

> <PUBCHEM_COMPONENT_COUNT>
1

> <PUBCHEM_CACTVS_TAUTO_COUNT>
-1

> <PUBCHEM_COORDINATE_TYPE>
1
5
255

> <PUBCHEM_BONDANNOTATIONS>
17  18  8
17  19  8
18  20  8
18  21  8
19  22  8
21  24  8
4  20  8
4  22  8
5  20  8
5  24  8
7  25  5
8  26  5

$$$$
138320013
  -OEChem-11282412102D

 69 70  0     1  0  0  0  0  0999 V2000
    8.3312   11.1200    0.0000 Cl  0  0  0  0  0  0  0  0  0  0  0  0
    4.8671   11.1200    0.0000 Cl  0  0  0  0  0  0  0  0  0  0  0  0
   11.7341    5.3700    0.0000 Cl  0  0  0  0  0  0  0  0  0  0  0  0
   11.7341    7.8700    0.0000 Cl  0  0  0  0  0  0  0  0  0  0  0  0
    8.3312   13.1200    0.0000 F   0  0  0  0  0  0  0  0  0  0  0  0
    1.4030    4.1200    0.0000 O   0  0  0  0  0  0  0  0  0  0  0  0
    7.4651    9.6200    0.0000 O   0  0  0  0  0  0  0  0  0  0  0  0
    4.8671    7.1200    0.0000 O   0  0  0  0  0  0  0  0  0  0  0  0
    2.2690    2.6200    0.0000 N   0  0  0  0  0  0  0  0  0  0  0  0
    2.2690    0.6200    0.0000 N   0  0  0  0  0  0  0  0  0  0  0  0
    5.7331    5.6200    0.0000 N   0  0  0  0  0  0  0  0  0  0  0  0
    7.4651    6.6200    0.0000 N   0  0  0  0  0  0  0  0  0  0  0  0
    8.3312    7.1200    0.0000 N   0  0  0  0  0  0  0  0  0  0  0  0
    9.1972    8.6200    0.0000 N   0  0  0  0  0  0  0  0  0  0  0  0
    1.4030    1.1200    0.0000 C   0  0  1  0  0  0  0  0  0  0  0  0
    3.1350    1.1200    0.0000 C   0  0  2  0  0  0  0  0  0  0  0  0
    1.4030    2.1200    0.0000 C   0  0  0  0  0  0  0  0  0  0  0  0
    3.1350    2.1200    0.0000 C   0  0  0  0  0  0  0  0  0  0  0  0
    0.5369    0.6200    0.0000 C   0  0  0  0  0  0  0  0  0  0  0  0
    4.0010    0.6200    0.0000 C   0  0  0  0  0  0  0  0  0  0  0  0
    2.2690    3.6200    0.0000 C   0  0  0  0  0  0  0  0  0  0  0  0
    3.1350    4.1200    0.0000 C   0  0  0  0  0  0  0  0  0  0  0  0
    3.1350    5.1200    0.0000 C   0  0  0  0  0  0  0  0  0  0  0  0
    4.0010    3.6200    0.0000 C   0  0  0  0  0  0  0  0  0  0  0  0
    4.0010    5.6200    0.0000 C   0  0  0  0  0  0  0  0  0  0  0  0
    4.8671    4.1200    0.0000 C   0  0  0  0  0  0  0  0  0  0  0  0
    4.8671    5.1200    0.0000 C   0  0  0  0  0  0  0  0  0  0  0  0
    6.5991   10.1200    0.0000 C   0  0  1  0  0  0  0  0  0  0  0  0
    5.7331    6.6200    0.0000 C   0  0  0  0  0  0  0  0  0  0  0  0
    6.5991   11.1200    0.0000 C   0  0  0  0  0  0  0  0  0  0  0  0
    6.5991    7.1200    0.0000 C   0  0  0  0  0  0  0  0  0  0  0  0
    5.7331    9.6200    0.0000 C   0  0  0  0  0  0  0  0  0  0  0  0
    7.4651    8.6200    0.0000 C   0  0  0  0  0  0  0  0  0  0  0  0
    6.5991    8.1200    0.0000 C   0  0  0  0  0  0  0  0  0  0  0  0
    7.4651   11.6200    0.0000 C   0  0  0  0  0  0  0  0  0  0  0  0
    5.7331   11.6200    0.0000 C   0  0  0  0  0  0  0  0  0  0  0  0
    8.3312    8.1200    0.0000 C   0  0  0  0  0  0  0  0  0  0  0  0
    7.4651   12.6200    0.0000 C   0  0  0  0  0  0  0  0  0  0  0  0
    5.7331   12.6200    0.0000 C   0  0  0  0  0  0  0  0  0  0  0  0
    6.5991   13.1200    0.0000 C   0  0  0  0  0  0  0  0  0  0  0  0
    1.4030    0.5000    0.0000 H   0  0  0  0  0  0  0  0  0  0  0  0
    3.1350    0.5000    0.0000 H   0  0  0  0  0  0  0  0  0  0  0  0
    1.1909    2.7026    0.0000 H   0  0  0  0  0  0  0  0  0  0  0  0
    0.7924    2.0123    0.0000 H   0  0  0  0  0  0  0  0  0  0  0  0
    3.7456    2.0123    0.0000 H   0  0  0  0  0  0  0  0  0  0  0  0
    3.3471    2.7026    0.0000 H   0  0  0  0  0  0  0  0  0  0  0  0
    2.2690    0.0000    0.0000 H   0  0  0  0  0  0  0  0  0  0  0  0
    0.2269    1.1569    0.0000 H   0  0  0  0  0  0  0  0  0  0  0  0
    0.0000    0.3100    0.0000 H   0  0  0  0  0  0  0  0  0  0  0  0
    0.8469    0.0831    0.0000 H   0  0  0  0  0  0  0  0  0  0  0  0
    3.6910    0.0831    0.0000 H   0  0  0  0  0  0  0  0  0  0  0  0
    4.5380    0.3100    0.0000 H   0  0  0  0  0  0  0  0  0  0  0  0
    4.3110    1.1569    0.0000 H   0  0  0  0  0  0  0  0  0  0  0  0
    2.5981    5.4300    0.0000 H   0  0  0  0  0  0  0  0  0  0  0  0
    4.0010    3.0000    0.0000 H   0  0  0  0  0  0  0  0  0  0  0  0
    4.0010    6.2400    0.0000 H   0  0  0  0  0  0  0  0  0  0  0  0
    5.4040    3.8100    0.0000 H   0  0  0  0  0  0  0  0  0  0  0  0
    6.2700    5.3100    0.0000 H   0  0  0  0  0  0  0  0  0  0  0  0
    6.5991    9.5000    0.0000 H   0  0  0  0  0  0  0  0  0  0  0  0
    5.4231   10.1569    0.0000 H   0  0  0  0  0  0  0  0  0  0  0  0
    5.1962    9.3100    0.0000 H   0  0  0  0  0  0  0  0  0  0  0  0
    6.0431    9.0831    0.0000 H   0  0  0  0  0  0  0  0  0  0  0  0
    6.0622    8.4300    0.0000 H   0  0  0  0  0  0  0  0  0  0  0  0
    5.1962   12.9300    0.0000 H   0  0  0  0  0  0  0  0  0  0  0  0
    6.5991   13.7400    0.0000 H   0  0  0  0  0  0  0  0  0  0  0  0
    9.7341    8.3100    0.0000 H   0  0  0  0  0  0  0  0  0  0  0  0
    9.1972    9.2400    0.0000 H   0  0  0  0  0  0  0  0  0  0  0  0
   12.7341    5.3700    0.0000 H   0  0  0  0  0  0  0  0  0  0  0  0
   12.7341    7.8700    0.0000 H   0  0  0  0  0  0  0  0  0  0  0  0
  1 35  1  0  0  0  0
  2 36  1  0  0  0  0
  3 68  1  0  0  0  0
  4 69  1  0  0  0  0
  5 38  1  0  0  0  0
  6 21  2  0  0  0  0
 28  7  1  6  0  0  0
  7 33  1  0  0  0  0
  8 29  2  0  0  0  0
  9 17  1  0  0  0  0
  9 18  1  0  0  0  0
  9 21  1  0  0  0  0
 10 15  1  0  0  0  0
 10 16  1  0  0  0  0
 10 47  1  0  0  0  0
 11 27  1  0  0  0  0
 11 29  1  0  0  0  0
 11 58  1  0  0  0  0
 12 13  1  0  0  0  0
 12 31  2  0  0  0  0
 13 37  2  0  0  0  0
 14 37  1  0  0  0  0
 14 66  1  0  0  0  0
 14 67  1  0  0  0  0
 15 17  1  0  0  0  0
 15 19  1  6  0  0  0
 15 41  1  0  0  0  0
 16 18  1  0  0  0  0
 16 20  1  6  0  0  0
 16 42  1  0  0  0  0
 17 43  1  0  0  0  0
 17 44  1  0  0  0  0
 18 45  1  0  0  0  0
 18 46  1  0  0  0  0
 19 48  1  0  0  0  0
 19 49  1  0  0  0  0
 19 50  1  0  0  0  0
 20 51  1  0  0  0  0
 20 52  1  0  0  0  0
 20 53  1  0  0  0  0
 21 22  1  0  0  0  0
 22 23  2  0  0  0  0
 22 24  1  0  0  0  0
 23 25  1  0  0  0  0
 23 54  1  0  0  0  0
 24 26  2  0  0  0  0
 24 55  1  0  0  0  0
 25 27  2  0  0  0  0
 25 56  1  0  0  0  0
 26 27  1  0  0  0  0
 26 57  1  0  0  0  0
 28 30  1  0  0  0  0
 28 32  1  0  0  0  0
 28 59  1  0  0  0  0
 29 31  1  0  0  0  0
 30 35  1  0  0  0  0
 30 36  2  0  0  0  0
 31 34  1  0  0  0  0
 32 60  1  0  0  0  0
 32 61  1  0  0  0  0
 32 62  1  0  0  0  0
 33 34  2  0  0  0  0
 33 37  1  0  0  0  0
 34 63  1  0  0  0  0
 35 38  2  0  0  0  0
 36 39  1  0  0  0  0
 38 40  1  0  0  0  0
 39 40  2  0  0  0  0
 39 64  1  0  0  0  0
 40 65  1  0  0  0  0
M  END
> <PUBCHEM_COMPOUND_CID>
138320013

> <PUBCHEM_COMPOUND_CANONICALIZED>
1

> <PUBCHEM_CACTVS_COMPLEXITY>
812

> <PUBCHEM_CACTVS_HBOND_ACCEPTOR>
8

> <PUBCHEM_CACTVS_HBOND_DONOR>
5

> <PUBCHEM_CACTVS_ROTATABLE_BOND>
6

> <PUBCHEM_CACTVS_SUBSKEYS>
AAADceB7sQAHAAAAAAAAAAAAAAAAAAAAAAA8eIEAAAAAAAAB0AAAHwIYAAAADD7hni4z9pPABACqAydycASSDAInZwAcmKG/btgOZrLFt5uXuSj23hnI6Ye6yaCeCAAAAACBAAAQAAAAAQIAAAAAAAAAAA==

> <PUBCHEM_IUPAC_OPENEYE_NAME>
6-amino-5-[(1R)-1-(2,6-dichloro-3-fluoro-phenyl)ethoxy]-N-[4-[(3S,5R)-3,5-dimethylpiperazine-1-carbonyl]phenyl]pyridazine-3-carboxamide;dihydrochloride

> <PUBCHEM_IUPAC_CAS_NAME>
6-amino-5-[(1R)-1-(2,6-dichloro-3-fluorophenyl)ethoxy]-N-[4-[[(3S,5R)-3,5-dimethyl-1-piperazinyl]-oxomethyl]phenyl]-3-pyridazinecarboxamide;dihydrochloride

> <PUBCHEM_IUPAC_NAME_MARKUP>
6-amino-5-[(1<I>R</I>)-1-(2,6-dichloro-3-fluorophenyl)ethoxy]-<I>N</I>-[4-[(3<I>S</I>,5<I>R</I>)-3,5-dimethylpiperazine-1-carbonyl]phenyl]pyridazine-3-carboxamide;dihydrochloride

> <PUBCHEM_IUPAC_NAME>
6-amino-5-[(1R)-1-(2,6-dichloro-3-fluorophenyl)ethoxy]-N-[4-[(3S,5R)-3,5-dimethylpiperazine-1-carbonyl]phenyl]pyridazine-3-carboxamide;dihydrochloride

> <PUBCHEM_IUPAC_SYSTEMATIC_NAME>
6-azanyl-5-[(1R)-1-[2,6-bis(chloranyl)-3-fluoranyl-phenyl]ethoxy]-N-[4-[(3S,5R)-3,5-dimethylpiperazin-1-yl]carbonylphenyl]pyridazine-3-carboxamide;dihydrochloride

> <PUBCHEM_IUPAC_TRADITIONAL_NAME>
6-amino-5-[(1R)-1-(2,6-dichloro-3-fluoro-phenyl)ethoxy]-N-[4-[(3S,5R)-3,5-dimethylpiperazine-1-carbonyl]phenyl]pyridazine-3-carboxamide;dihydrochloride

> <PUBCHEM_IUPAC_INCHI>
InChI=1S/C26H27Cl2FN6O3.2ClH/c1-13-11-35(12-14(2)31-13)26(37)16-4-6-17(7-5-16)32-25(36)20-10-21(24(30)34-33-20)38-15(3)22-18(27)8-9-19(29)23(22)28;;/h4-10,13-15,31H,11-12H2,1-3H3,(H2,30,34)(H,32,36);2*1H/t13-,14+,15-;;/m1../s1

> <PUBCHEM_IUPAC_INCHIKEY>
IERUINQRGJAECT-ISUJJMBGSA-N

> <PUBCHEM_EXACT_MASS>
634.100978

> <PUBCHEM_MOLECULAR_FORMULA>
C26H29Cl4FN6O3

> <PUBCHEM_MOLECULAR_WEIGHT>
634.4

> <PUBCHEM_OPENEYE_CAN_SMILES>
CC1CN(CC(N1)C)C(=O)C2=CC=C(C=C2)NC(=O)C3=NN=C(C(=C3)OC(C)C4=C(C=CC(=C4Cl)F)Cl)N.Cl.Cl

> <PUBCHEM_OPENEYE_ISO_SMILES>
C[C@@H]1CN(C[C@@H](N1)C)C(=O)C2=CC=C(C=C2)NC(=O)C3=NN=C(C(=C3)O[C@H](C)C4=C(C=CC(=C4Cl)F)Cl)N.Cl.Cl

> <PUBCHEM_CACTVS_TPSA>
123

> <PUBCHEM_MONOISOTOPIC_WEIGHT>
632.103928

> <PUBCHEM_TOTAL_CHARGE>
0

> <PUBCHEM_HEAVY_ATOM_COUNT>
40

> <PUBCHEM_ATOM_DEF_STEREO_COUNT>
3

> <PUBCHEM_ATOM_UDEF_STEREO_COUNT>
0

> <PUBCHEM_BOND_DEF_STEREO_COUNT>
0

> <PUBCHEM_BOND_UDEF_STEREO_COUNT>
0

> <PUBCHEM_ISOTOPIC_ATOM_COUNT>
0

> <PUBCHEM_COMPONENT_COUNT>
3

> <PUBCHEM_CACTVS_TAUTO_COUNT>
-1

> <PUBCHEM_COORDINATE_TYPE>
1
5
255

> <PUBCHEM_BONDANNOTATIONS>
12  13  8
12  31  8
13  37  8
15  19  6
16  20  6
22  23  8
22  24  8
23  25  8
24  26  8
25  27  8
26  27  8
30  35  8
30  36  8
31  34  8
33  34  8
33  37  8
35  38  8
36  39  8
38  40  8
39  40  8
28  7  6

$$$$
76899983
  -OEChem-11282412102D

 60 63  0     1  0  0  0  0  0999 V2000
    8.9282    2.0600    0.0000 Cl  0  0  0  0  0  0  0  0  0  0  0  0
    7.1962    5.0600    0.0000 Cl  0  0  0  0  0  0  0  0  0  0  0  0
   10.6603    3.0600    0.0000 F   0  0  0  0  0  0  0  0  0  0  0  0
    2.8660    0.5600    0.0000 O   0  0  0  0  0  0  0  0  0  0  0  0
    6.3301    3.5600    0.0000 O   0  0  0  0  0  0  0  0  0  0  0  0
    4.5981   -2.4400    0.0000 N   0  0  3  0  0  0  0  0  0  0  0  0
    4.5981   -4.4400    0.0000 N   0  0  0  0  0  0  0  0  0  0  0  0
    5.4641   -0.9400    0.0000 N   0  0  0  0  0  0  0  0  0  0  0  0
    3.7320    3.0600    0.0000 N   0  0  0  0  0  0  0  0  0  0  0  0
    4.5981    4.5600    0.0000 N   0  0  0  0  0  0  0  0  0  0  0  0
    3.7320   -2.9400    0.0000 C   0  0  2  0  0  0  0  0  0  0  0  0
    3.7320   -3.9400    0.0000 C   0  0  0  0  0  0  0  0  0  0  0  0
    5.4641   -2.9400    0.0000 C   0  0  0  0  0  0  0  0  0  0  0  0
    5.4641   -3.9400    0.0000 C   0  0  0  0  0  0  0  0  0  0  0  0
    2.8660   -2.4400    0.0000 C   0  0  0  0  0  0  0  0  0  0  0  0
    4.5981   -1.4400    0.0000 C   0  0  0  0  0  0  0  0  0  0  0  0
    3.7320   -0.9400    0.0000 C   0  0  0  0  0  0  0  0  0  0  0  0
    3.7320    0.0600    0.0000 C   0  0  0  0  0  0  0  0  0  0  0  0
    4.5981    0.5600    0.0000 C   0  0  0  0  0  0  0  0  0  0  0  0
    5.4641    0.0600    0.0000 C   0  0  0  0  0  0  0  0  0  0  0  0
    4.5981    1.5600    0.0000 C   0  0  0  0  0  0  0  0  0  0  0  0
    5.4641    2.0600    0.0000 C   0  0  0  0  0  0  0  0  0  0  0  0
    7.1962    3.0600    0.0000 C   0  0  1  0  0  0  0  0  0  0  0  0
    5.4641    3.0600    0.0000 C   0  0  0  0  0  0  0  0  0  0  0  0
    3.7320    2.0600    0.0000 C   0  0  0  0  0  0  0  0  0  0  0  0
    8.0622    3.5600    0.0000 C   0  0  0  0  0  0  0  0  0  0  0  0
    4.5981    3.5600    0.0000 C   0  0  0  0  0  0  0  0  0  0  0  0
    7.1962    2.0600    0.0000 C   0  0  0  0  0  0  0  0  0  0  0  0
    2.0000    0.0600    0.0000 C   0  0  0  0  0  0  0  0  0  0  0  0
    8.9282    3.0600    0.0000 C   0  0  0  0  0  0  0  0  0  0  0  0
    8.0622    4.5600    0.0000 C   0  0  0  0  0  0  0  0  0  0  0  0
    9.7942    3.5600    0.0000 C   0  0  0  0  0  0  0  0  0  0  0  0
    8.9282    5.0600    0.0000 C   0  0  0  0  0  0  0  0  0  0  0  0
    9.7942    4.5600    0.0000 C   0  0  0  0  0  0  0  0  0  0  0  0
    3.7320   -2.3200    0.0000 H   0  0  0  0  0  0  0  0  0  0  0  0
    3.1215   -3.8323    0.0000 H   0  0  0  0  0  0  0  0  0  0  0  0
    3.5200   -4.5226    0.0000 H   0  0  0  0  0  0  0  0  0  0  0  0
    6.0747   -3.0477    0.0000 H   0  0  0  0  0  0  0  0  0  0  0  0
    5.6762   -2.3574    0.0000 H   0  0  0  0  0  0  0  0  0  0  0  0
    5.6762   -4.5226    0.0000 H   0  0  0  0  0  0  0  0  0  0  0  0
    6.0747   -3.8323    0.0000 H   0  0  0  0  0  0  0  0  0  0  0  0
    4.5981   -5.0600    0.0000 H   0  0  0  0  0  0  0  0  0  0  0  0
    3.1760   -1.9031    0.0000 H   0  0  0  0  0  0  0  0  0  0  0  0
    2.3291   -2.1300    0.0000 H   0  0  0  0  0  0  0  0  0  0  0  0
    2.5560   -2.9769    0.0000 H   0  0  0  0  0  0  0  0  0  0  0  0
    3.1951   -1.2500    0.0000 H   0  0  0  0  0  0  0  0  0  0  0  0
    6.0010    0.3700    0.0000 H   0  0  0  0  0  0  0  0  0  0  0  0
    6.0010    1.7500    0.0000 H   0  0  0  0  0  0  0  0  0  0  0  0
    6.6592    2.7500    0.0000 H   0  0  0  0  0  0  0  0  0  0  0  0
    3.1951    1.7500    0.0000 H   0  0  0  0  0  0  0  0  0  0  0  0
    6.5762    2.0600    0.0000 H   0  0  0  0  0  0  0  0  0  0  0  0
    7.1962    1.4400    0.0000 H   0  0  0  0  0  0  0  0  0  0  0  0
    7.8162    2.0600    0.0000 H   0  0  0  0  0  0  0  0  0  0  0  0
    1.6900    0.5969    0.0000 H   0  0  0  0  0  0  0  0  0  0  0  0
    1.4631   -0.2500    0.0000 H   0  0  0  0  0  0  0  0  0  0  0  0
    2.3100   -0.4769    0.0000 H   0  0  0  0  0  0  0  0  0  0  0  0
    8.9282    5.6800    0.0000 H   0  0  0  0  0  0  0  0  0  0  0  0
    4.0611    4.8700    0.0000 H   0  0  0  0  0  0  0  0  0  0  0  0
    5.1350    4.8700    0.0000 H   0  0  0  0  0  0  0  0  0  0  0  0
   10.3312    4.8700    0.0000 H   0  0  0  0  0  0  0  0  0  0  0  0
  1 30  1  0  0  0  0
  2 31  1  0  0  0  0
  3 32  1  0  0  0  0
  4 18  1  0  0  0  0
  4 29  1  0  0  0  0
 23  5  1  1  0  0  0
  5 24  1  0  0  0  0
  6 11  1  0  0  0  0
  6 13  1  0  0  0  0
  6 16  1  0  0  0  0
  7 12  1  0  0  0  0
  7 14  1  0  0  0  0
  7 42  1  0  0  0  0
  8 16  2  0  0  0  0
  8 20  1  0  0  0  0
  9 25  2  0  0  0  0
  9 27  1  0  0  0  0
 10 27  1  0  0  0  0
 10 58  1  0  0  0  0
 10 59  1  0  0  0  0
 11 12  1  0  0  0  0
 11 15  1  6  0  0  0
 11 35  1  0  0  0  0
 12 36  1  0  0  0  0
 12 37  1  0  0  0  0
 13 14  1  0  0  0  0
 13 38  1  0  0  0  0
 13 39  1  0  0  0  0
 14 40  1  0  0  0  0
 14 41  1  0  0  0  0
 15 43  1  0  0  0  0
 15 44  1  0  0  0  0
 15 45  1  0  0  0  0
 16 17  1  0  0  0  0
 17 18  2  0  0  0  0
 17 46  1  0  0  0  0
 18 19  1  0  0  0  0
 19 20  2  0  0  0  0
 19 21  1  0  0  0  0
 20 47  1  0  0  0  0
 21 22  2  0  0  0  0
 21 25  1  0  0  0  0
 22 24  1  0  0  0  0
 22 48  1  0  0  0  0
 23 26  1  0  0  0  0
 23 28  1  0  0  0  0
 23 49  1  0  0  0  0
 24 27  2  0  0  0  0
 25 50  1  0  0  0  0
 26 30  1  0  0  0  0
 26 31  2  0  0  0  0
 28 51  1  0  0  0  0
 28 52  1  0  0  0  0
 28 53  1  0  0  0  0
 29 54  1  0  0  0  0
 29 55  1  0  0  0  0
 29 56  1  0  0  0  0
 30 32  2  0  0  0  0
 31 33  1  0  0  0  0
 32 34  1  0  0  0  0
 33 34  2  0  0  0  0
 33 57  1  0  0  0  0
 34 60  1  0  0  0  0
M  END
> <PUBCHEM_COMPOUND_CID>
76899983

> <PUBCHEM_COMPOUND_CANONICALIZED>
1

> <PUBCHEM_CACTVS_COMPLEXITY>
655

> <PUBCHEM_CACTVS_HBOND_ACCEPTOR>
8

> <PUBCHEM_CACTVS_HBOND_DONOR>
2

> <PUBCHEM_CACTVS_ROTATABLE_BOND>
6

> <PUBCHEM_CACTVS_SUBSKEYS>
AAADceB7sQAGAAAAAAAAAAAAAAAAAAAAAAA8WLEAAAAAAAAB8AAAHwIQAAAADD7hmi4/tpPIFACgAjJnZASCiCkxZyAJ2KA/bpiOZuLFu5uXOCju0BvY6Cew8K4OgAAAAACBAAAAAAAAAQIAAAAAAAAAAA==

> <PUBCHEM_IUPAC_OPENEYE_NAME>
3-[(1R)-1-(2,6-dichloro-3-fluoro-phenyl)ethoxy]-5-[4-methoxy-6-[(2S)-2-methylpiperazin-1-yl]-3-pyridyl]pyridin-2-amine

> <PUBCHEM_IUPAC_CAS_NAME>
3-[(1R)-1-(2,6-dichloro-3-fluorophenyl)ethoxy]-5-[4-methoxy-6-[(2S)-2-methyl-1-piperazinyl]-3-pyridinyl]-2-pyridinamine

> <PUBCHEM_IUPAC_NAME_MARKUP>
3-[(1<I>R</I>)-1-(2,6-dichloro-3-fluorophenyl)ethoxy]-5-[4-methoxy-6-[(2<I>S</I>)-2-methylpiperazin-1-yl]pyridin-3-yl]pyridin-2-amine

> <PUBCHEM_IUPAC_NAME>
3-[(1R)-1-(2,6-dichloro-3-fluorophenyl)ethoxy]-5-[4-methoxy-6-[(2S)-2-methylpiperazin-1-yl]pyridin-3-yl]pyridin-2-amine

> <PUBCHEM_IUPAC_SYSTEMATIC_NAME>
3-[(1R)-1-[2,6-bis(chloranyl)-3-fluoranyl-phenyl]ethoxy]-5-[4-methoxy-6-[(2S)-2-methylpiperazin-1-yl]pyridin-3-yl]pyridin-2-amine

> <PUBCHEM_IUPAC_TRADITIONAL_NAME>
[3-[(1R)-1-(2,6-dichloro-3-fluoro-phenyl)ethoxy]-5-[4-methoxy-6-[(2S)-2-methylpiperazino]-3-pyridyl]-2-pyridyl]amine

> <PUBCHEM_IUPAC_INCHI>
InChI=1S/C24H26Cl2FN5O2/c1-13-10-29-6-7-32(13)21-9-19(33-3)16(12-30-21)15-8-20(24(28)31-11-15)34-14(2)22-17(25)4-5-18(27)23(22)26/h4-5,8-9,11-14,29H,6-7,10H2,1-3H3,(H2,28,31)/t13-,14+/m0/s1

> <PUBCHEM_IUPAC_INCHIKEY>
BVGDAZBTIVRTGO-UONOGXRCSA-N

> <PUBCHEM_XLOGP3_AA>
4.5

> <PUBCHEM_EXACT_MASS>
505.1447586

> <PUBCHEM_MOLECULAR_FORMULA>
C24H26Cl2FN5O2

> <PUBCHEM_MOLECULAR_WEIGHT>
506.4

> <PUBCHEM_OPENEYE_CAN_SMILES>
CC1CNCCN1C2=NC=C(C(=C2)OC)C3=CC(=C(N=C3)N)OC(C)C4=C(C=CC(=C4Cl)F)Cl

> <PUBCHEM_OPENEYE_ISO_SMILES>
C[C@H]1CNCCN1C2=NC=C(C(=C2)OC)C3=CC(=C(N=C3)N)O[C@H](C)C4=C(C=CC(=C4Cl)F)Cl

> <PUBCHEM_CACTVS_TPSA>
85.5

> <PUBCHEM_MONOISOTOPIC_WEIGHT>
505.1447586

> <PUBCHEM_TOTAL_CHARGE>
0

> <PUBCHEM_HEAVY_ATOM_COUNT>
34

> <PUBCHEM_ATOM_DEF_STEREO_COUNT>
2

> <PUBCHEM_ATOM_UDEF_STEREO_COUNT>
0

> <PUBCHEM_BOND_DEF_STEREO_COUNT>
0

> <PUBCHEM_BOND_UDEF_STEREO_COUNT>
0

> <PUBCHEM_ISOTOPIC_ATOM_COUNT>
0

> <PUBCHEM_COMPONENT_COUNT>
1

> <PUBCHEM_CACTVS_TAUTO_COUNT>
-1

> <PUBCHEM_COORDINATE_TYPE>
1
5
255

> <PUBCHEM_BONDANNOTATIONS>
11  15  6
16  17  8
17  18  8
18  19  8
19  20  8
21  22  8
21  25  8
22  24  8
24  27  8
26  30  8
26  31  8
30  32  8
31  33  8
32  34  8
33  34  8
23  5  5
8  16  8
8  20  8
9  25  8
9  27  8

$$$$
78357765
  -OEChem-11282412102D

 59 63  0     0  0  0  0  0  0999 V2000
    3.4534    3.0346    0.0000 Br  0  0  0  0  0  0  0  0  0  0  0  0
    3.4534   -1.0346    0.0000 O   0  0  0  0  0  0  0  0  0  0  0  0
    8.6659   -3.0000    0.0000 O   0  0  0  0  0  0  0  0  0  0  0  0
    6.9338    5.0000    0.0000 N   0  0  0  0  0  0  0  0  0  0  0  0
    6.9338    2.0000    0.0000 N   0  0  0  0  0  0  0  0  0  0  0  0
    6.0678    0.5000    0.0000 N   0  0  0  0  0  0  0  0  0  0  0  0
    5.2018    2.0000    0.0000 N   0  0  0  0  0  0  0  0  0  0  0  0
    5.2018   -1.0000    0.0000 N   0  0  0  0  0  0  0  0  0  0  0  0
    2.5357    0.4792    0.0000 N   0  0  0  0  0  0  0  0  0  0  0  0
    6.9338    3.0000    0.0000 C   0  0  0  0  0  0  0  0  0  0  0  0
    6.0678    3.5000    0.0000 C   0  0  0  0  0  0  0  0  0  0  0  0
    7.7998    3.5000    0.0000 C   0  0  0  0  0  0  0  0  0  0  0  0
    6.0678    4.5000    0.0000 C   0  0  0  0  0  0  0  0  0  0  0  0
    7.7998    4.5000    0.0000 C   0  0  0  0  0  0  0  0  0  0  0  0
    6.9338    6.0000    0.0000 C   0  0  0  0  0  0  0  0  0  0  0  0
    6.0678    1.5000    0.0000 C   0  0  0  0  0  0  0  0  0  0  0  0
    5.2018   -0.0000    0.0000 C   0  0  0  0  0  0  0  0  0  0  0  0
    4.3358    1.5000    0.0000 C   0  0  0  0  0  0  0  0  0  0  0  0
    4.3358    0.5000    0.0000 C   0  0  0  0  0  0  0  0  0  0  0  0
    3.4418    2.0347    0.0000 C   0  0  0  0  0  0  0  0  0  0  0  0
    3.4418   -0.0347    0.0000 C   0  0  0  0  0  0  0  0  0  0  0  0
    2.5357    1.5208    0.0000 C   0  0  0  0  0  0  0  0  0  0  0  0
    6.0678   -1.5000    0.0000 C   0  0  0  0  0  0  0  0  0  0  0  0
    6.0678   -2.5000    0.0000 C   0  0  0  0  0  0  0  0  0  0  0  0
    6.9338   -1.0000    0.0000 C   0  0  0  0  0  0  0  0  0  0  0  0
    6.9338   -3.0000    0.0000 C   0  0  0  0  0  0  0  0  0  0  0  0
    7.7998   -1.5000    0.0000 C   0  0  0  0  0  0  0  0  0  0  0  0
    7.7998   -2.5000    0.0000 C   0  0  0  0  0  0  0  0  0  0  0  0
    8.6659   -4.0000    0.0000 C   0  0  0  0  0  0  0  0  0  0  0  0
    7.7998   -4.5000    0.0000 C   0  0  0  0  0  0  0  0  0  0  0  0
    9.5319   -4.5000    0.0000 C   0  0  0  0  0  0  0  0  0  0  0  0
    7.7998   -5.5000    0.0000 C   0  0  0  0  0  0  0  0  0  0  0  0
    9.5319   -5.5000    0.0000 C   0  0  0  0  0  0  0  0  0  0  0  0
    8.6659   -6.0000    0.0000 C   0  0  0  0  0  0  0  0  0  0  0  0
    6.3969    2.6900    0.0000 H   0  0  0  0  0  0  0  0  0  0  0  0
    5.4572    3.6077    0.0000 H   0  0  0  0  0  0  0  0  0  0  0  0
    5.8557    2.9174    0.0000 H   0  0  0  0  0  0  0  0  0  0  0  0
    8.0119    2.9174    0.0000 H   0  0  0  0  0  0  0  0  0  0  0  0
    8.4104    3.6077    0.0000 H   0  0  0  0  0  0  0  0  0  0  0  0
    5.8557    5.0826    0.0000 H   0  0  0  0  0  0  0  0  0  0  0  0
    5.4572    4.3923    0.0000 H   0  0  0  0  0  0  0  0  0  0  0  0
    8.4104    4.3923    0.0000 H   0  0  0  0  0  0  0  0  0  0  0  0
    8.0119    5.0826    0.0000 H   0  0  0  0  0  0  0  0  0  0  0  0
    7.4708    1.6900    0.0000 H   0  0  0  0  0  0  0  0  0  0  0  0
    7.5538    6.0000    0.0000 H   0  0  0  0  0  0  0  0  0  0  0  0
    6.9338    6.6200    0.0000 H   0  0  0  0  0  0  0  0  0  0  0  0
    6.3138    6.0000    0.0000 H   0  0  0  0  0  0  0  0  0  0  0  0
    4.6648   -1.3100    0.0000 H   0  0  0  0  0  0  0  0  0  0  0  0
    2.0000    1.8329    0.0000 H   0  0  0  0  0  0  0  0  0  0  0  0
    2.0000    0.1671    0.0000 H   0  0  0  0  0  0  0  0  0  0  0  0
    5.5309   -2.8100    0.0000 H   0  0  0  0  0  0  0  0  0  0  0  0
    6.9338   -0.3800    0.0000 H   0  0  0  0  0  0  0  0  0  0  0  0
    6.9338   -3.6200    0.0000 H   0  0  0  0  0  0  0  0  0  0  0  0
    8.3368   -1.1900    0.0000 H   0  0  0  0  0  0  0  0  0  0  0  0
    7.2629   -4.1900    0.0000 H   0  0  0  0  0  0  0  0  0  0  0  0
   10.0688   -4.1900    0.0000 H   0  0  0  0  0  0  0  0  0  0  0  0
    7.2629   -5.8100    0.0000 H   0  0  0  0  0  0  0  0  0  0  0  0
   10.0688   -5.8100    0.0000 H   0  0  0  0  0  0  0  0  0  0  0  0
    8.6659   -6.6200    0.0000 H   0  0  0  0  0  0  0  0  0  0  0  0
  1 20  1  0  0  0  0
  2 21  2  0  0  0  0
  3 28  1  0  0  0  0
  3 29  1  0  0  0  0
  4 13  1  0  0  0  0
  4 14  1  0  0  0  0
  4 15  1  0  0  0  0
  5 10  1  0  0  0  0
  5 16  1  0  0  0  0
  5 44  1  0  0  0  0
  6 16  1  0  0  0  0
  6 17  2  0  0  0  0
  7 16  2  0  0  0  0
  7 18  1  0  0  0  0
  8 17  1  0  0  0  0
  8 23  1  0  0  0  0
  8 48  1  0  0  0  0
  9 21  1  0  0  0  0
  9 22  1  0  0  0  0
  9 50  1  0  0  0  0
 10 11  1  0  0  0  0
 10 12  1  0  0  0  0
 10 35  1  0  0  0  0
 11 13  1  0  0  0  0
 11 36  1  0  0  0  0
 11 37  1  0  0  0  0
 12 14  1  0  0  0  0
 12 38  1  0  0  0  0
 12 39  1  0  0  0  0
 13 40  1  0  0  0  0
 13 41  1  0  0  0  0
 14 42  1  0  0  0  0
 14 43  1  0  0  0  0
 15 45  1  0  0  0  0
 15 46  1  0  0  0  0
 15 47  1  0  0  0  0
 17 19  1  0  0  0  0
 18 19  2  0  0  0  0
 18 20  1  0  0  0  0
 19 21  1  0  0  0  0
 20 22  2  0  0  0  0
 22 49  1  0  0  0  0
 23 24  2  0  0  0  0
 23 25  1  0  0  0  0
 24 26  1  0  0  0  0
 24 51  1  0  0  0  0
 25 27  2  0  0  0  0
 25 52  1  0  0  0  0
 26 28  2  0  0  0  0
 26 53  1  0  0  0  0
 27 28  1  0  0  0  0
 27 54  1  0  0  0  0
 29 30  2  0  0  0  0
 29 31  1  0  0  0  0
 30 32  1  0  0  0  0
 30 55  1  0  0  0  0
 31 33  2  0  0  0  0
 31 56  1  0  0  0  0
 32 34  2  0  0  0  0
 32 57  1  0  0  0  0
 33 34  1  0  0  0  0
 33 58  1  0  0  0  0
 34 59  1  0  0  0  0
M  END
> <PUBCHEM_COMPOUND_CID>
78357765

> <PUBCHEM_COMPOUND_CANONICALIZED>
1

> <PUBCHEM_CACTVS_COMPLEXITY>
716

> <PUBCHEM_CACTVS_HBOND_ACCEPTOR>
7

> <PUBCHEM_CACTVS_HBOND_DONOR>
3

> <PUBCHEM_CACTVS_ROTATABLE_BOND>
6

> <PUBCHEM_CACTVS_SUBSKEYS>
AAADceB7sAAAEAAAAAAAAAAAAAAAAAAAAAA8eIECAAAAAACB0AAAHgBQAAABjCzBngQz9pfIFACoAyd2dACCiCklIqAJmKEubPiMLnrE+duGPajs0hPI6XewQAAIAEAAAAAAAAAAgAAAAAAAAAAAAAAAAA==

> <PUBCHEM_IUPAC_OPENEYE_NAME>
8-bromo-2-[(1-methyl-4-piperidyl)amino]-4-(4-phenoxyanilino)-6H-pyrido[4,3-d]pyrimidin-5-one

> <PUBCHEM_IUPAC_CAS_NAME>
8-bromo-2-[(1-methyl-4-piperidinyl)amino]-4-(4-phenoxyanilino)-6H-pyrido[4,3-d]pyrimidin-5-one

> <PUBCHEM_IUPAC_NAME_MARKUP>
8-bromo-2-[(1-methylpiperidin-4-yl)amino]-4-(4-phenoxyanilino)-6<I>H</I>-pyrido[4,3-d]pyrimidin-5-one

> <PUBCHEM_IUPAC_NAME>
8-bromo-2-[(1-methylpiperidin-4-yl)amino]-4-(4-phenoxyanilino)-6H-pyrido[4,3-d]pyrimidin-5-one

> <PUBCHEM_IUPAC_SYSTEMATIC_NAME>
8-bromanyl-2-[(1-methylpiperidin-4-yl)amino]-4-[(4-phenoxyphenyl)amino]-6H-pyrido[4,3-d]pyrimidin-5-one

> <PUBCHEM_IUPAC_TRADITIONAL_NAME>
8-bromo-2-[(1-methyl-4-piperidyl)amino]-4-(4-phenoxyanilino)-6H-pyrido[4,3-d]pyrimidin-5-one

> <PUBCHEM_IUPAC_INCHI>
InChI=1S/C25H25BrN6O2/c1-32-13-11-17(12-14-32)29-25-30-22-20(26)15-27-24(33)21(22)23(31-25)28-16-7-9-19(10-8-16)34-18-5-3-2-4-6-18/h2-10,15,17H,11-14H2,1H3,(H,27,33)(H2,28,29,30,31)

> <PUBCHEM_IUPAC_INCHIKEY>
SXWMIXPJPNCXQQ-UHFFFAOYSA-N

> <PUBCHEM_XLOGP3_AA>
4.9

> <PUBCHEM_EXACT_MASS>
520.12224

> <PUBCHEM_MOLECULAR_FORMULA>
C25H25BrN6O2

> <PUBCHEM_MOLECULAR_WEIGHT>
521.4

> <PUBCHEM_OPENEYE_CAN_SMILES>
CN1CCC(CC1)NC2=NC3=C(C(=O)NC=C3Br)C(=N2)NC4=CC=C(C=C4)OC5=CC=CC=C5

> <PUBCHEM_OPENEYE_ISO_SMILES>
CN1CCC(CC1)NC2=NC3=C(C(=O)NC=C3Br)C(=N2)NC4=CC=C(C=C4)OC5=CC=CC=C5

> <PUBCHEM_CACTVS_TPSA>
91.4

> <PUBCHEM_MONOISOTOPIC_WEIGHT>
520.12224

> <PUBCHEM_TOTAL_CHARGE>
0

> <PUBCHEM_HEAVY_ATOM_COUNT>
34

> <PUBCHEM_ATOM_DEF_STEREO_COUNT>
0

> <PUBCHEM_ATOM_UDEF_STEREO_COUNT>
0

> <PUBCHEM_BOND_DEF_STEREO_COUNT>
0

> <PUBCHEM_BOND_UDEF_STEREO_COUNT>
0

> <PUBCHEM_ISOTOPIC_ATOM_COUNT>
0

> <PUBCHEM_COMPONENT_COUNT>
1

> <PUBCHEM_CACTVS_TAUTO_COUNT>
-1

> <PUBCHEM_COORDINATE_TYPE>
1
5
255

> <PUBCHEM_BONDANNOTATIONS>
17  19  8
18  19  8
18  20  8
19  21  8
20  22  8
23  24  8
23  25  8
24  26  8
25  27  8
26  28  8
27  28  8
29  30  8
29  31  8
30  32  8
31  33  8
32  34  8
33  34  8
6  16  8
6  17  8
7  16  8
7  18  8
9  21  8
9  22  8

$$$$
89495685
  -OEChem-11282412102D

 76 81  0     0  0  0  0  0  0999 V2000
   10.3850   -5.2244    0.0000 O   0  0  0  0  0  0  0  0  0  0  0  0
    9.1424   -1.4223    0.0000 N   0  0  0  0  0  0  0  0  0  0  0  0
    5.5981   -1.6176    0.0000 N   0  0  0  0  0  0  0  0  0  0  0  0
    7.3301   -1.6176    0.0000 N   0  0  0  0  0  0  0  0  0  0  0  0
   11.3635    4.1955    0.0000 N   0  0  0  0  0  0  0  0  0  0  0  0
    6.4641   -0.1176    0.0000 N   0  0  0  0  0  0  0  0  0  0  0  0
   13.3205    4.6079    0.0000 N   0  0  0  0  0  0  0  0  0  0  0  0
    3.0000   -1.1176    0.0000 C   0  0  0  0  0  0  0  0  0  0  0  0
    2.5000   -0.2515    0.0000 C   0  0  0  0  0  0  0  0  0  0  0  0
    2.0000   -1.1176    0.0000 C   0  0  0  0  0  0  0  0  0  0  0  0
    3.8660   -1.6176    0.0000 C   0  0  0  0  0  0  0  0  0  0  0  0
    9.4530   -2.3728    0.0000 C   0  0  0  0  0  0  0  0  0  0  0  0
   10.4315   -2.5790    0.0000 C   0  0  0  0  0  0  0  0  0  0  0  0
    8.7852   -3.1171    0.0000 C   0  0  0  0  0  0  0  0  0  0  0  0
    4.7320   -1.1176    0.0000 C   0  0  0  0  0  0  0  0  0  0  0  0
   10.7422   -3.5295    0.0000 C   0  0  0  0  0  0  0  0  0  0  0  0
    9.0958   -4.0676    0.0000 C   0  0  0  0  0  0  0  0  0  0  0  0
   10.0744   -4.2738    0.0000 C   0  0  0  0  0  0  0  0  0  0  0  0
    8.1962   -1.1176    0.0000 C   0  0  0  0  0  0  0  0  0  0  0  0
    9.7260   -0.6176    0.0000 C   0  0  0  0  0  0  0  0  0  0  0  0
    8.1962   -0.1176    0.0000 C   0  0  0  0  0  0  0  0  0  0  0  0
    9.1424    0.1872    0.0000 C   0  0  0  0  0  0  0  0  0  0  0  0
    6.4641   -1.1176    0.0000 C   0  0  0  0  0  0  0  0  0  0  0  0
    9.4530    1.1377    0.0000 C   0  0  0  0  0  0  0  0  0  0  0  0
    7.3301    0.3824    0.0000 C   0  0  0  0  0  0  0  0  0  0  0  0
   12.0314    3.4512    0.0000 C   0  0  0  0  0  0  0  0  0  0  0  0
   11.6742    5.1460    0.0000 C   0  0  0  0  0  0  0  0  0  0  0  0
   13.0099    3.6574    0.0000 C   0  0  0  0  0  0  0  0  0  0  0  0
   12.6527    5.3522    0.0000 C   0  0  0  0  0  0  0  0  0  0  0  0
   10.3850    3.9893    0.0000 C   0  0  0  0  0  0  0  0  0  0  0  0
   10.0744    3.0387    0.0000 C   0  0  0  0  0  0  0  0  0  0  0  0
   10.4315    1.3439    0.0000 C   0  0  0  0  0  0  0  0  0  0  0  0
    8.7852    1.8820    0.0000 C   0  0  0  0  0  0  0  0  0  0  0  0
   10.7422    2.2944    0.0000 C   0  0  0  0  0  0  0  0  0  0  0  0
    9.0958    2.8325    0.0000 C   0  0  0  0  0  0  0  0  0  0  0  0
   14.2990    4.8141    0.0000 C   0  0  0  0  0  0  0  0  0  0  0  0
    2.8395   -1.7164    0.0000 H   0  0  0  0  0  0  0  0  0  0  0  0
    2.9750    0.1470    0.0000 H   0  0  0  0  0  0  0  0  0  0  0  0
    2.0250    0.1470    0.0000 H   0  0  0  0  0  0  0  0  0  0  0  0
    1.4174   -0.9055    0.0000 H   0  0  0  0  0  0  0  0  0  0  0  0
    1.8923   -1.7281    0.0000 H   0  0  0  0  0  0  0  0  0  0  0  0
    3.4675   -2.0925    0.0000 H   0  0  0  0  0  0  0  0  0  0  0  0
    4.2646   -2.0925    0.0000 H   0  0  0  0  0  0  0  0  0  0  0  0
    8.8464   -2.2449    0.0000 H   0  0  0  0  0  0  0  0  0  0  0  0
   11.0454   -2.4917    0.0000 H   0  0  0  0  0  0  0  0  0  0  0  0
   10.4521   -1.9594    0.0000 H   0  0  0  0  0  0  0  0  0  0  0  0
    8.4026   -2.6292    0.0000 H   0  0  0  0  0  0  0  0  0  0  0  0
    8.2383   -3.4091    0.0000 H   0  0  0  0  0  0  0  0  0  0  0  0
   11.1248   -4.0174    0.0000 H   0  0  0  0  0  0  0  0  0  0  0  0
   11.2891   -3.2375    0.0000 H   0  0  0  0  0  0  0  0  0  0  0  0
    8.4820   -4.1550    0.0000 H   0  0  0  0  0  0  0  0  0  0  0  0
    9.0753   -4.6873    0.0000 H   0  0  0  0  0  0  0  0  0  0  0  0
    5.1306   -0.6426    0.0000 H   0  0  0  0  0  0  0  0  0  0  0  0
    4.3335   -0.6426    0.0000 H   0  0  0  0  0  0  0  0  0  0  0  0
    9.6603   -4.7353    0.0000 H   0  0  0  0  0  0  0  0  0  0  0  0
   10.3460   -0.6176    0.0000 H   0  0  0  0  0  0  0  0  0  0  0  0
    5.5981   -2.2376    0.0000 H   0  0  0  0  0  0  0  0  0  0  0  0
   10.9917   -5.3522    0.0000 H   0  0  0  0  0  0  0  0  0  0  0  0
    7.3301    1.0024    0.0000 H   0  0  0  0  0  0  0  0  0  0  0  0
   11.5050    3.1235    0.0000 H   0  0  0  0  0  0  0  0  0  0  0  0
   12.2626    2.8759    0.0000 H   0  0  0  0  0  0  0  0  0  0  0  0
   11.6536    5.7657    0.0000 H   0  0  0  0  0  0  0  0  0  0  0  0
   11.0604    5.2334    0.0000 H   0  0  0  0  0  0  0  0  0  0  0  0
   13.0304    3.0377    0.0000 H   0  0  0  0  0  0  0  0  0  0  0  0
   13.6237    3.5700    0.0000 H   0  0  0  0  0  0  0  0  0  0  0  0
   13.1791    5.6799    0.0000 H   0  0  0  0  0  0  0  0  0  0  0  0
   12.4214    5.9275    0.0000 H   0  0  0  0  0  0  0  0  0  0  0  0
   10.3645    4.6089    0.0000 H   0  0  0  0  0  0  0  0  0  0  0  0
    9.7712    4.0766    0.0000 H   0  0  0  0  0  0  0  0  0  0  0  0
   10.8456    0.8825    0.0000 H   0  0  0  0  0  0  0  0  0  0  0  0
    8.1785    1.7542    0.0000 H   0  0  0  0  0  0  0  0  0  0  0  0
   11.3489    2.4223    0.0000 H   0  0  0  0  0  0  0  0  0  0  0  0
    8.6818    3.2940    0.0000 H   0  0  0  0  0  0  0  0  0  0  0  0
   14.4269    4.2075    0.0000 H   0  0  0  0  0  0  0  0  0  0  0  0
   14.9057    4.9420    0.0000 H   0  0  0  0  0  0  0  0  0  0  0  0
   14.1712    5.4208    0.0000 H   0  0  0  0  0  0  0  0  0  0  0  0
  1 18  1  0  0  0  0
  1 58  1  0  0  0  0
  2 12  1  0  0  0  0
  2 19  1  0  0  0  0
  2 20  1  0  0  0  0
  3 15  1  0  0  0  0
  3 23  1  0  0  0  0
  3 57  1  0  0  0  0
  4 19  2  0  0  0  0
  4 23  1  0  0  0  0
  5 26  1  0  0  0  0
  5 27  1  0  0  0  0
  5 30  1  0  0  0  0
  6 23  2  0  0  0  0
  6 25  1  0  0  0  0
  7 28  1  0  0  0  0
  7 29  1  0  0  0  0
  7 36  1  0  0  0  0
  8  9  1  0  0  0  0
  8 10  1  0  0  0  0
  8 11  1  0  0  0  0
  8 37  1  0  0  0  0
  9 10  1  0  0  0  0
  9 38  1  0  0  0  0
  9 39  1  0  0  0  0
 10 40  1  0  0  0  0
 10 41  1  0  0  0  0
 11 15  1  0  0  0  0
 11 42  1  0  0  0  0
 11 43  1  0  0  0  0
 12 13  1  0  0  0  0
 12 14  1  0  0  0  0
 12 44  1  0  0  0  0
 13 16  1  0  0  0  0
 13 45  1  0  0  0  0
 13 46  1  0  0  0  0
 14 17  1  0  0  0  0
 14 47  1  0  0  0  0
 14 48  1  0  0  0  0
 15 53  1  0  0  0  0
 15 54  1  0  0  0  0
 16 18  1  0  0  0  0
 16 49  1  0  0  0  0
 16 50  1  0  0  0  0
 17 18  1  0  0  0  0
 17 51  1  0  0  0  0
 17 52  1  0  0  0  0
 18 55  1  0  0  0  0
 19 21  1  0  0  0  0
 20 22  2  0  0  0  0
 20 56  1  0  0  0  0
 21 22  1  0  0  0  0
 21 25  2  0  0  0  0
 22 24  1  0  0  0  0
 24 32  2  0  0  0  0
 24 33  1  0  0  0  0
 25 59  1  0  0  0  0
 26 28  1  0  0  0  0
 26 60  1  0  0  0  0
 26 61  1  0  0  0  0
 27 29  1  0  0  0  0
 27 62  1  0  0  0  0
 27 63  1  0  0  0  0
 28 64  1  0  0  0  0
 28 65  1  0  0  0  0
 29 66  1  0  0  0  0
 29 67  1  0  0  0  0
 30 31  1  0  0  0  0
 30 68  1  0  0  0  0
 30 69  1  0  0  0  0
 31 34  2  0  0  0  0
 31 35  1  0  0  0  0
 32 34  1  0  0  0  0
 32 70  1  0  0  0  0
 33 35  2  0  0  0  0
 33 71  1  0  0  0  0
 34 72  1  0  0  0  0
 35 73  1  0  0  0  0
 36 74  1  0  0  0  0
 36 75  1  0  0  0  0
 36 76  1  0  0  0  0
M  END
> <PUBCHEM_COMPOUND_CID>
89495685

> <PUBCHEM_COMPOUND_CANONICALIZED>
1

> <PUBCHEM_CACTVS_COMPLEXITY>
681

> <PUBCHEM_CACTVS_HBOND_ACCEPTOR>
6

> <PUBCHEM_CACTVS_HBOND_DONOR>
2

> <PUBCHEM_CACTVS_ROTATABLE_BOND>
8

> <PUBCHEM_CACTVS_SUBSKEYS>
AAADcfB7oAAAAAAAAAAAAAAAGAAAAWAAAAA8eIEAAAAAAFgB/AAAHgAQCAAADTzhmwY/sN/MEgCgAjJnZACCgCkxAKAJ2KAoRJiIeOLA2dGUZAhskALIyCewwMAOwAAAAAAAAACAgAAAAAAAAAAAAAAAAA==

> <PUBCHEM_IUPAC_OPENEYE_NAME>
4-[2-(2-cyclopropylethylamino)-5-[4-[(4-methylpiperazin-1-yl)methyl]phenyl]pyrrolo[2,3-d]pyrimidin-7-yl]cyclohexanol

> <PUBCHEM_IUPAC_CAS_NAME>
4-[2-(2-cyclopropylethylamino)-5-[4-[(4-methyl-1-piperazinyl)methyl]phenyl]-7-pyrrolo[2,3-d]pyrimidinyl]-1-cyclohexanol

> <PUBCHEM_IUPAC_NAME_MARKUP>
4-[2-(2-cyclopropylethylamino)-5-[4-[(4-methylpiperazin-1-yl)methyl]phenyl]pyrrolo[2,3-d]pyrimidin-7-yl]cyclohexan-1-ol

> <PUBCHEM_IUPAC_NAME>
4-[2-(2-cyclopropylethylamino)-5-[4-[(4-methylpiperazin-1-yl)methyl]phenyl]pyrrolo[2,3-d]pyrimidin-7-yl]cyclohexan-1-ol

> <PUBCHEM_IUPAC_SYSTEMATIC_NAME>
4-[2-(2-cyclopropylethylamino)-5-[4-[(4-methylpiperazin-1-yl)methyl]phenyl]pyrrolo[2,3-d]pyrimidin-7-yl]cyclohexan-1-ol

> <PUBCHEM_IUPAC_TRADITIONAL_NAME>
4-[2-(2-cyclopropylethylamino)-5-[4-[(4-methylpiperazino)methyl]phenyl]pyrrolo[2,3-d]pyrimidin-7-yl]cyclohexanol

> <PUBCHEM_IUPAC_INCHI>
InChI=1S/C29H40N6O/c1-33-14-16-34(17-15-33)19-22-4-6-23(7-5-22)27-20-35(24-8-10-25(36)11-9-24)28-26(27)18-31-29(32-28)30-13-12-21-2-3-21/h4-7,18,20-21,24-25,36H,2-3,8-17,19H2,1H3,(H,30,31,32)

> <PUBCHEM_IUPAC_INCHIKEY>
LBEJYFVJIPQSNX-UHFFFAOYSA-N

> <PUBCHEM_XLOGP3_AA>
4.2

> <PUBCHEM_EXACT_MASS>
488.32635992

> <PUBCHEM_MOLECULAR_FORMULA>
C29H40N6O

> <PUBCHEM_MOLECULAR_WEIGHT>
488.7

> <PUBCHEM_OPENEYE_CAN_SMILES>
CN1CCN(CC1)CC2=CC=C(C=C2)C3=CN(C4=NC(=NC=C34)NCCC5CC5)C6CCC(CC6)O

> <PUBCHEM_OPENEYE_ISO_SMILES>
CN1CCN(CC1)CC2=CC=C(C=C2)C3=CN(C4=NC(=NC=C34)NCCC5CC5)C6CCC(CC6)O

> <PUBCHEM_CACTVS_TPSA>
69.4

> <PUBCHEM_MONOISOTOPIC_WEIGHT>
488.32635992

> <PUBCHEM_TOTAL_CHARGE>
0

> <PUBCHEM_HEAVY_ATOM_COUNT>
36

> <PUBCHEM_ATOM_DEF_STEREO_COUNT>
0

> <PUBCHEM_ATOM_UDEF_STEREO_COUNT>
0

> <PUBCHEM_BOND_DEF_STEREO_COUNT>
0

> <PUBCHEM_BOND_UDEF_STEREO_COUNT>
0

> <PUBCHEM_ISOTOPIC_ATOM_COUNT>
0

> <PUBCHEM_COMPONENT_COUNT>
1

> <PUBCHEM_CACTVS_TAUTO_COUNT>
-1

> <PUBCHEM_COORDINATE_TYPE>
1
5
255

> <PUBCHEM_BONDANNOTATIONS>
19  21  8
2  19  8
2  20  8
20  22  8
21  22  8
21  25  8
24  32  8
24  33  8
31  34  8
31  35  8
32  34  8
33  35  8
4  19  8
4  23  8
6  23  8
6  25  8

$$$$
137528229
  -OEChem-11282412102D

 80 83  0     1  0  0  0  0  0999 V2000
    1.4030    7.4062    0.0000 S   0  0  0  0  0  0  0  0  0  0  0  0
    9.6675    1.0369    0.0000 S   0  0  0  0  0  0  0  0  0  0  0  0
   11.3135   13.9854    0.0000 O   0  0  0  0  0  0  0  0  0  0  0  0
    7.5754    5.3584    0.0000 O   0  0  0  0  0  0  0  0  0  0  0  0
    5.1267    4.5220    0.0000 O   0  0  0  0  0  0  0  0  0  0  0  0
    2.2690    7.9062    0.0000 O   0  0  0  0  0  0  0  0  0  0  0  0
   10.5335    1.5369    0.0000 O   0  0  0  0  0  0  0  0  0  0  0  0
    0.9030    8.2722    0.0000 O   0  0  0  0  0  0  0  0  0  0  0  0
    1.9030    6.5402    0.0000 O   0  0  0  0  0  0  0  0  0  0  0  0
    9.1675    1.9030    0.0000 O   0  0  0  0  0  0  0  0  0  0  0  0
   10.1675    0.1709    0.0000 O   0  0  0  0  0  0  0  0  0  0  0  0
   11.6707   10.6811    0.0000 N   0  0  0  0  0  0  0  0  0  0  0  0
    7.0754    6.2244    0.0000 N   0  0  3  0  0  0  0  0  0  0  0  0
    8.1264   12.4858    0.0000 N   0  0  0  0  0  0  0  0  0  0  0  0
    6.3943    9.4858    0.0000 N   0  0  0  0  0  0  0  0  0  0  0  0
    5.5853    8.8980    0.0000 N   0  0  0  0  0  0  0  0  0  0  0  0
    7.2603   10.9858    0.0000 N   0  0  0  0  0  0  0  0  0  0  0  0
    6.3943   12.4858    0.0000 N   0  0  0  0  0  0  0  0  0  0  0  0
   12.9598   13.4473    0.0000 C   0  0  0  0  0  0  0  0  0  0  0  0
   13.7041   14.1151    0.0000 C   0  0  0  0  0  0  0  0  0  0  0  0
   13.9103   13.1366    0.0000 C   0  0  0  0  0  0  0  0  0  0  0  0
   11.9813   13.2411    0.0000 C   0  0  0  0  0  0  0  0  0  0  0  0
   11.6707   12.2905    0.0000 C   0  0  0  0  0  0  0  0  0  0  0  0
   10.7244   11.9858    0.0000 C   0  0  0  0  0  0  0  0  0  0  0  0
   12.2543   11.4858    0.0000 C   0  0  0  0  0  0  0  0  0  0  0  0
   10.7244   10.9858    0.0000 C   0  0  0  0  0  0  0  0  0  0  0  0
    9.8584   12.4858    0.0000 C   0  0  0  0  0  0  0  0  0  0  0  0
    9.8584   10.4858    0.0000 C   0  0  0  0  0  0  0  0  0  0  0  0
   11.9813    9.7306    0.0000 C   0  0  0  0  0  0  0  0  0  0  0  0
    8.9924   11.9858    0.0000 C   0  0  0  0  0  0  0  0  0  0  0  0
    8.9924   10.9858    0.0000 C   0  0  0  0  0  0  0  0  0  0  0  0
    6.0972    6.0165    0.0000 C   0  0  0  0  0  0  0  0  0  0  0  0
    5.9927    5.0220    0.0000 C   0  0  1  0  0  0  0  0  0  0  0  0
    6.9062    4.6152    0.0000 C   0  0  0  0  0  0  0  0  0  0  0  0
    7.4821    7.1380    0.0000 C   0  0  0  0  0  0  0  0  0  0  0  0
    6.8943    7.9470    0.0000 C   0  0  0  0  0  0  0  0  0  0  0  0
    5.8943    7.9470    0.0000 C   0  0  0  0  0  0  0  0  0  0  0  0
    7.2603   11.9858    0.0000 C   0  0  0  0  0  0  0  0  0  0  0  0
    7.2033    8.8980    0.0000 C   0  0  0  0  0  0  0  0  0  0  0  0
    6.3943   10.4858    0.0000 C   0  0  0  0  0  0  0  0  0  0  0  0
    5.3065    7.1380    0.0000 C   0  0  0  0  0  0  0  0  0  0  0  0
    5.5283   10.9858    0.0000 C   0  0  0  0  0  0  0  0  0  0  0  0
    5.5283   11.9858    0.0000 C   0  0  0  0  0  0  0  0  0  0  0  0
    0.5369    6.9062    0.0000 C   0  0  0  0  0  0  0  0  0  0  0  0
    8.8015    0.5369    0.0000 C   0  0  0  0  0  0  0  0  0  0  0  0
   12.9263   12.8282    0.0000 H   0  0  0  0  0  0  0  0  0  0  0  0
   14.2794   14.3464    0.0000 H   0  0  0  0  0  0  0  0  0  0  0  0
   13.3765   14.6415    0.0000 H   0  0  0  0  0  0  0  0  0  0  0  0
   13.8230   12.5228    0.0000 H   0  0  0  0  0  0  0  0  0  0  0  0
   14.5300   13.1572    0.0000 H   0  0  0  0  0  0  0  0  0  0  0  0
   12.8743   11.4858    0.0000 H   0  0  0  0  0  0  0  0  0  0  0  0
    9.8584   13.1058    0.0000 H   0  0  0  0  0  0  0  0  0  0  0  0
    9.8584    9.8658    0.0000 H   0  0  0  0  0  0  0  0  0  0  0  0
   11.3920    9.5380    0.0000 H   0  0  0  0  0  0  0  0  0  0  0  0
   12.1739    9.1412    0.0000 H   0  0  0  0  0  0  0  0  0  0  0  0
   12.5706    9.9232    0.0000 H   0  0  0  0  0  0  0  0  0  0  0  0
    8.4555   10.6758    0.0000 H   0  0  0  0  0  0  0  0  0  0  0  0
    6.0324    6.6331    0.0000 H   0  0  0  0  0  0  0  0  0  0  0  0
    5.4772    6.0165    0.0000 H   0  0  0  0  0  0  0  0  0  0  0  0
    5.4727    5.3596    0.0000 H   0  0  0  0  0  0  0  0  0  0  0  0
    6.5962    4.0783    0.0000 H   0  0  0  0  0  0  0  0  0  0  0  0
    7.4078    4.2508    0.0000 H   0  0  0  0  0  0  0  0  0  0  0  0
    7.9961    6.7912    0.0000 H   0  0  0  0  0  0  0  0  0  0  0  0
    7.9128    7.5839    0.0000 H   0  0  0  0  0  0  0  0  0  0  0  0
    8.1264   13.1058    0.0000 H   0  0  0  0  0  0  0  0  0  0  0  0
    7.7930    9.0896    0.0000 H   0  0  0  0  0  0  0  0  0  0  0  0
    5.1267    3.9020    0.0000 H   0  0  0  0  0  0  0  0  0  0  0  0
    4.8049    7.5024    0.0000 H   0  0  0  0  0  0  0  0  0  0  0  0
    4.9421    6.6364    0.0000 H   0  0  0  0  0  0  0  0  0  0  0  0
    5.8081    6.7735    0.0000 H   0  0  0  0  0  0  0  0  0  0  0  0
    4.9914   10.6758    0.0000 H   0  0  0  0  0  0  0  0  0  0  0  0
    4.9914   12.2958    0.0000 H   0  0  0  0  0  0  0  0  0  0  0  0
    0.2269    7.4431    0.0000 H   0  0  0  0  0  0  0  0  0  0  0  0
    0.0000    6.5962    0.0000 H   0  0  0  0  0  0  0  0  0  0  0  0
    0.8469    6.3693    0.0000 H   0  0  0  0  0  0  0  0  0  0  0  0
    8.4914    1.0739    0.0000 H   0  0  0  0  0  0  0  0  0  0  0  0
    8.2645    0.2269    0.0000 H   0  0  0  0  0  0  0  0  0  0  0  0
    9.1114    0.0000    0.0000 H   0  0  0  0  0  0  0  0  0  0  0  0
    2.8059    7.5962    0.0000 H   0  0  0  0  0  0  0  0  0  0  0  0
   11.0704    1.2269    0.0000 H   0  0  0  0  0  0  0  0  0  0  0  0
  1  6  1  0  0  0  0
  1  8  2  0  0  0  0
  1  9  2  0  0  0  0
  1 44  1  0  0  0  0
  2  7  1  0  0  0  0
  2 10  2  0  0  0  0
  2 11  2  0  0  0  0
  2 45  1  0  0  0  0
  3 22  2  0  0  0  0
  4 13  1  0  0  0  0
  4 34  1  0  0  0  0
 33  5  1  1  0  0  0
  5 67  1  0  0  0  0
  6 79  1  0  0  0  0
  7 80  1  0  0  0  0
 12 25  1  0  0  0  0
 12 26  1  0  0  0  0
 12 29  1  0  0  0  0
 13 32  1  0  0  0  0
 13 35  1  0  0  0  0
 14 30  1  0  0  0  0
 14 38  1  0  0  0  0
 14 65  1  0  0  0  0
 15 16  1  0  0  0  0
 15 39  1  0  0  0  0
 15 40  1  0  0  0  0
 16 37  2  0  0  0  0
 17 38  1  0  0  0  0
 17 40  2  0  0  0  0
 18 38  2  0  0  0  0
 18 43  1  0  0  0  0
 19 20  1  0  0  0  0
 19 21  1  0  0  0  0
 19 22  1  0  0  0  0
 19 46  1  0  0  0  0
 20 21  1  0  0  0  0
 20 47  1  0  0  0  0
 20 48  1  0  0  0  0
 21 49  1  0  0  0  0
 21 50  1  0  0  0  0
 22 23  1  0  0  0  0
 23 24  1  0  0  0  0
 23 25  2  0  0  0  0
 24 26  2  0  0  0  0
 24 27  1  0  0  0  0
 25 51  1  0  0  0  0
 26 28  1  0  0  0  0
 27 30  2  0  0  0  0
 27 52  1  0  0  0  0
 28 31  2  0  0  0  0
 28 53  1  0  0  0  0
 29 54  1  0  0  0  0
 29 55  1  0  0  0  0
 29 56  1  0  0  0  0
 30 31  1  0  0  0  0
 31 57  1  0  0  0  0
 32 33  1  0  0  0  0
 32 58  1  0  0  0  0
 32 59  1  0  0  0  0
 33 34  1  0  0  0  0
 33 60  1  0  0  0  0
 34 61  1  0  0  0  0
 34 62  1  0  0  0  0
 35 36  1  0  0  0  0
 35 63  1  0  0  0  0
 35 64  1  0  0  0  0
 36 37  1  0  0  0  0
 36 39  2  0  0  0  0
 37 41  1  0  0  0  0
 39 66  1  0  0  0  0
 40 42  1  0  0  0  0
 41 68  1  0  0  0  0
 41 69  1  0  0  0  0
 41 70  1  0  0  0  0
 42 43  2  0  0  0  0
 42 71  1  0  0  0  0
 43 72  1  0  0  0  0
 44 73  1  0  0  0  0
 44 74  1  0  0  0  0
 44 75  1  0  0  0  0
 45 76  1  0  0  0  0
 45 77  1  0  0  0  0
 45 78  1  0  0  0  0
M  END
> <PUBCHEM_COMPOUND_CID>
137528229

> <PUBCHEM_COMPOUND_CANONICALIZED>
1

> <PUBCHEM_CACTVS_COMPLEXITY>
862

> <PUBCHEM_CACTVS_HBOND_ACCEPTOR>
14

> <PUBCHEM_CACTVS_HBOND_DONOR>
4

> <PUBCHEM_CACTVS_ROTATABLE_BOND>
7

> <PUBCHEM_CACTVS_SUBSKEYS>
AAADcfB7vABgAAAAAAAAAAAAGAAAAWLFgAA8QAAAAAAAAFgB/gAAHgQcCAAADRzhnga/8PfcEoKqA7Z3ZHCShCk1gqA92CE4ZNiLOPrA3dGEpYhqmALZyeccicCegACAQAACAAAAAQCAAAQAAAAAAAAAAA==

> <PUBCHEM_IUPAC_OPENEYE_NAME>
cyclopropyl-[5-[[4-[4-[[(4S)-4-hydroxyisoxazolidin-2-yl]methyl]-3-methyl-pyrazol-1-yl]pyrimidin-2-yl]amino]-1-methyl-indol-3-yl]methanone;methanesulfonic acid

> <PUBCHEM_IUPAC_CAS_NAME>
cyclopropyl-[5-[[4-[4-[[(4S)-4-hydroxy-2-isoxazolidinyl]methyl]-3-methyl-1-pyrazolyl]-2-pyrimidinyl]amino]-1-methyl-3-indolyl]methanone;methanesulfonic acid

> <PUBCHEM_IUPAC_NAME_MARKUP>
cyclopropyl-[5-[[4-[4-[[(4<I>S</I>)-4-hydroxy-1,2-oxazolidin-2-yl]methyl]-3-methylpyrazol-1-yl]pyrimidin-2-yl]amino]-1-methylindol-3-yl]methanone;methanesulfonic acid

> <PUBCHEM_IUPAC_NAME>
cyclopropyl-[5-[[4-[4-[[(4S)-4-hydroxy-1,2-oxazolidin-2-yl]methyl]-3-methylpyrazol-1-yl]pyrimidin-2-yl]amino]-1-methylindol-3-yl]methanone;methanesulfonic acid

> <PUBCHEM_IUPAC_SYSTEMATIC_NAME>
cyclopropyl-[1-methyl-5-[[4-[3-methyl-4-[[(4S)-4-oxidanyl-1,2-oxazolidin-2-yl]methyl]pyrazol-1-yl]pyrimidin-2-yl]amino]indol-3-yl]methanone;methanesulfonic acid

> <PUBCHEM_IUPAC_TRADITIONAL_NAME>
cyclopropyl-[5-[[4-[4-[[(4S)-4-hydroxyisoxazolidin-2-yl]methyl]-3-methyl-pyrazol-1-yl]pyrimidin-2-yl]amino]-1-methyl-indol-3-yl]methanone;mesylic acid

> <PUBCHEM_IUPAC_INCHI>
InChI=1S/C25H27N7O3.2CH4O3S/c1-15-17(10-31-12-19(33)14-35-31)11-32(29-15)23-7-8-26-25(28-23)27-18-5-6-22-20(9-18)21(13-30(22)2)24(34)16-3-4-16;2*1-5(2,3)4/h5-9,11,13,16,19,33H,3-4,10,12,14H2,1-2H3,(H,26,27,28);2*1H3,(H,2,3,4)/t19-;;/m0../s1

> <PUBCHEM_IUPAC_INCHIKEY>
KGZICKLRNSIYNH-TXEPZDRESA-N

> <PUBCHEM_EXACT_MASS>
665.19376807

> <PUBCHEM_MOLECULAR_FORMULA>
C27H35N7O9S2

> <PUBCHEM_MOLECULAR_WEIGHT>
665.7

> <PUBCHEM_OPENEYE_CAN_SMILES>
CC1=NN(C=C1CN2CC(CO2)O)C3=NC(=NC=C3)NC4=CC5=C(C=C4)N(C=C5C(=O)C6CC6)C.CS(=O)(=O)O.CS(=O)(=O)O

> <PUBCHEM_OPENEYE_ISO_SMILES>
CC1=NN(C=C1CN2C[C@@H](CO2)O)C3=NC(=NC=C3)NC4=CC5=C(C=C4)N(C=C5C(=O)C6CC6)C.CS(=O)(=O)O.CS(=O)(=O)O

> <PUBCHEM_CACTVS_TPSA>
236

> <PUBCHEM_MONOISOTOPIC_WEIGHT>
665.19376807

> <PUBCHEM_TOTAL_CHARGE>
0

> <PUBCHEM_HEAVY_ATOM_COUNT>
45

> <PUBCHEM_ATOM_DEF_STEREO_COUNT>
1

> <PUBCHEM_ATOM_UDEF_STEREO_COUNT>
0

> <PUBCHEM_BOND_DEF_STEREO_COUNT>
0

> <PUBCHEM_BOND_UDEF_STEREO_COUNT>
0

> <PUBCHEM_ISOTOPIC_ATOM_COUNT>
0

> <PUBCHEM_COMPONENT_COUNT>
3

> <PUBCHEM_CACTVS_TAUTO_COUNT>
-1

> <PUBCHEM_COORDINATE_TYPE>
1
5
255

> <PUBCHEM_BONDANNOTATIONS>
12  25  8
12  26  8
15  16  8
15  39  8
16  37  8
17  38  8
17  40  8
18  38  8
18  43  8
23  24  8
23  25  8
24  26  8
24  27  8
26  28  8
27  30  8
28  31  8
30  31  8
36  37  8
36  39  8
40  42  8
42  43  8
33  5  5

$$$$
71269142
  -OEChem-11282412102D

 62 66  0     0  0  0  0  0  0999 V2000
    2.0000   -4.6900    0.0000 O   0  0  0  0  0  0  0  0  0  0  0  0
    9.8106   -1.2246    0.0000 O   0  0  0  0  0  0  0  0  0  0  0  0
    6.3301    1.8100    0.0000 N   0  0  0  0  0  0  0  0  0  0  0  0
    4.5981   -3.1900    0.0000 N   0  0  0  0  0  0  0  0  0  0  0  0
    7.1962    0.3100    0.0000 N   0  0  0  0  0  0  0  0  0  0  0  0
    8.0622    1.8100    0.0000 N   0  0  0  0  0  0  0  0  0  0  0  0
    8.0622   -1.1900    0.0000 N   0  0  0  0  0  0  0  0  0  0  0  0
    3.7320    5.3100    0.0000 N   0  0  0  0  0  0  0  0  0  0  0  0
   10.7282    0.2892    0.0000 N   0  0  0  0  0  0  0  0  0  0  0  0
   10.7282    1.3308    0.0000 N   0  0  0  0  0  0  0  0  0  0  0  0
    4.5981    2.8100    0.0000 C   0  0  0  0  0  0  0  0  0  0  0  0
    5.4641    3.3100    0.0000 C   0  0  0  0  0  0  0  0  0  0  0  0
    4.5981    1.8100    0.0000 C   0  0  0  0  0  0  0  0  0  0  0  0
    6.3301    2.8100    0.0000 C   0  0  0  0  0  0  0  0  0  0  0  0
    5.4641    1.3100    0.0000 C   0  0  0  0  0  0  0  0  0  0  0  0
    3.7320    3.3100    0.0000 C   0  0  0  0  0  0  0  0  0  0  0  0
    2.8660   -4.1900    0.0000 C   0  0  0  0  0  0  0  0  0  0  0  0
    2.8660   -3.1900    0.0000 C   0  0  0  0  0  0  0  0  0  0  0  0
    3.7320   -4.6900    0.0000 C   0  0  0  0  0  0  0  0  0  0  0  0
    3.7320   -2.6900    0.0000 C   0  0  0  0  0  0  0  0  0  0  0  0
    4.5981   -4.1900    0.0000 C   0  0  0  0  0  0  0  0  0  0  0  0
    7.1962    1.3100    0.0000 C   0  0  0  0  0  0  0  0  0  0  0  0
    5.4641   -2.6900    0.0000 C   0  0  0  0  0  0  0  0  0  0  0  0
    3.7320    4.3100    0.0000 C   0  0  0  0  0  0  0  0  0  0  0  0
    5.4641   -1.6900    0.0000 C   0  0  0  0  0  0  0  0  0  0  0  0
    6.3301   -3.1900    0.0000 C   0  0  0  0  0  0  0  0  0  0  0  0
    8.0622   -0.1900    0.0000 C   0  0  0  0  0  0  0  0  0  0  0  0
    7.1962   -1.6900    0.0000 C   0  0  0  0  0  0  0  0  0  0  0  0
    8.9282    1.3100    0.0000 C   0  0  0  0  0  0  0  0  0  0  0  0
    8.9282    0.3100    0.0000 C   0  0  0  0  0  0  0  0  0  0  0  0
    6.3301   -1.1900    0.0000 C   0  0  0  0  0  0  0  0  0  0  0  0
    7.1962   -2.6900    0.0000 C   0  0  0  0  0  0  0  0  0  0  0  0
    9.8222   -0.2247    0.0000 C   0  0  0  0  0  0  0  0  0  0  0  0
    9.8222    1.8447    0.0000 C   0  0  0  0  0  0  0  0  0  0  0  0
    4.5981    3.4300    0.0000 H   0  0  0  0  0  0  0  0  0  0  0  0
    5.8626    3.7850    0.0000 H   0  0  0  0  0  0  0  0  0  0  0  0
    5.0656    3.7850    0.0000 H   0  0  0  0  0  0  0  0  0  0  0  0
    3.9875    1.9177    0.0000 H   0  0  0  0  0  0  0  0  0  0  0  0
    4.3860    1.2274    0.0000 H   0  0  0  0  0  0  0  0  0  0  0  0
    6.9407    2.7023    0.0000 H   0  0  0  0  0  0  0  0  0  0  0  0
    6.5422    3.3926    0.0000 H   0  0  0  0  0  0  0  0  0  0  0  0
    5.0656    0.8351    0.0000 H   0  0  0  0  0  0  0  0  0  0  0  0
    5.8626    0.8351    0.0000 H   0  0  0  0  0  0  0  0  0  0  0  0
    3.1215    3.4177    0.0000 H   0  0  0  0  0  0  0  0  0  0  0  0
    3.5200    2.7274    0.0000 H   0  0  0  0  0  0  0  0  0  0  0  0
    2.8660   -4.8100    0.0000 H   0  0  0  0  0  0  0  0  0  0  0  0
    2.6540   -2.6074    0.0000 H   0  0  0  0  0  0  0  0  0  0  0  0
    2.2554   -3.2977    0.0000 H   0  0  0  0  0  0  0  0  0  0  0  0
    3.3335   -5.1650    0.0000 H   0  0  0  0  0  0  0  0  0  0  0  0
    4.1306   -5.1650    0.0000 H   0  0  0  0  0  0  0  0  0  0  0  0
    4.1306   -2.2151    0.0000 H   0  0  0  0  0  0  0  0  0  0  0  0
    3.3335   -2.2151    0.0000 H   0  0  0  0  0  0  0  0  0  0  0  0
    4.8101   -4.7726    0.0000 H   0  0  0  0  0  0  0  0  0  0  0  0
    5.2087   -4.0823    0.0000 H   0  0  0  0  0  0  0  0  0  0  0  0
    2.0000   -5.3100    0.0000 H   0  0  0  0  0  0  0  0  0  0  0  0
    4.9272   -1.3800    0.0000 H   0  0  0  0  0  0  0  0  0  0  0  0
    6.3301   -3.8100    0.0000 H   0  0  0  0  0  0  0  0  0  0  0  0
    6.3301   -0.5700    0.0000 H   0  0  0  0  0  0  0  0  0  0  0  0
    7.7331   -3.0000    0.0000 H   0  0  0  0  0  0  0  0  0  0  0  0
    8.5991   -1.5000    0.0000 H   0  0  0  0  0  0  0  0  0  0  0  0
    9.8150    2.4646    0.0000 H   0  0  0  0  0  0  0  0  0  0  0  0
   11.2639   -0.0229    0.0000 H   0  0  0  0  0  0  0  0  0  0  0  0
  1 17  1  0  0  0  0
  1 55  1  0  0  0  0
  2 33  2  0  0  0  0
  3 14  1  0  0  0  0
  3 15  1  0  0  0  0
  3 22  1  0  0  0  0
  4 20  1  0  0  0  0
  4 21  1  0  0  0  0
  4 23  1  0  0  0  0
  5 22  1  0  0  0  0
  5 27  2  0  0  0  0
  6 22  2  0  0  0  0
  6 29  1  0  0  0  0
  7 27  1  0  0  0  0
  7 28  1  0  0  0  0
  7 60  1  0  0  0  0
  8 24  3  0  0  0  0
  9 10  1  0  0  0  0
  9 33  1  0  0  0  0
  9 62  1  0  0  0  0
 10 34  2  0  0  0  0
 11 12  1  0  0  0  0
 11 13  1  0  0  0  0
 11 16  1  0  0  0  0
 11 35  1  0  0  0  0
 12 14  1  0  0  0  0
 12 36  1  0  0  0  0
 12 37  1  0  0  0  0
 13 15  1  0  0  0  0
 13 38  1  0  0  0  0
 13 39  1  0  0  0  0
 14 40  1  0  0  0  0
 14 41  1  0  0  0  0
 15 42  1  0  0  0  0
 15 43  1  0  0  0  0
 16 24  1  0  0  0  0
 16 44  1  0  0  0  0
 16 45  1  0  0  0  0
 17 18  1  0  0  0  0
 17 19  1  0  0  0  0
 17 46  1  0  0  0  0
 18 20  1  0  0  0  0
 18 47  1  0  0  0  0
 18 48  1  0  0  0  0
 19 21  1  0  0  0  0
 19 49  1  0  0  0  0
 19 50  1  0  0  0  0
 20 51  1  0  0  0  0
 20 52  1  0  0  0  0
 21 53  1  0  0  0  0
 21 54  1  0  0  0  0
 23 25  2  0  0  0  0
 23 26  1  0  0  0  0
 25 31  1  0  0  0  0
 25 56  1  0  0  0  0
 26 32  2  0  0  0  0
 26 57  1  0  0  0  0
 27 30  1  0  0  0  0
 28 31  2  0  0  0  0
 28 32  1  0  0  0  0
 29 30  2  0  0  0  0
 29 34  1  0  0  0  0
 30 33  1  0  0  0  0
 31 58  1  0  0  0  0
 32 59  1  0  0  0  0
 34 61  1  0  0  0  0
M  END
> <PUBCHEM_COMPOUND_CID>
71269142

> <PUBCHEM_COMPOUND_CANONICALIZED>
1

> <PUBCHEM_CACTVS_COMPLEXITY>
775

> <PUBCHEM_CACTVS_HBOND_ACCEPTOR>
9

> <PUBCHEM_CACTVS_HBOND_DONOR>
3

> <PUBCHEM_CACTVS_ROTATABLE_BOND>
5

> <PUBCHEM_CACTVS_SUBSKEYS>
AAADceB78AAAAAAAAAAAAAAAAAAAAAAAAAA8WLECAAAAAACBwAAAHgAYCAAADRzhngYx8JfqEgC4BzdzdACSgCklAqAbmCE4ZNiIuHrA2dGEZYhqmALIyW8QAAAKAACAAAAAAAAAAQAAAAAAAAAAAAAAAA==

> <PUBCHEM_IUPAC_OPENEYE_NAME>
2-[1-[4-[4-(4-hydroxy-1-piperidyl)anilino]-5-oxo-6H-pyrimido[4,5-d]pyridazin-2-yl]-4-piperidyl]acetonitrile

> <PUBCHEM_IUPAC_CAS_NAME>
2-[1-[4-[4-(4-hydroxy-1-piperidinyl)anilino]-5-oxo-6H-pyrimido[4,5-d]pyridazin-2-yl]-4-piperidinyl]acetonitrile

> <PUBCHEM_IUPAC_NAME_MARKUP>
2-[1-[4-[4-(4-hydroxypiperidin-1-yl)anilino]-5-oxo-6<I>H</I>-pyrimido[4,5-d]pyridazin-2-yl]piperidin-4-yl]acetonitrile

> <PUBCHEM_IUPAC_NAME>
2-[1-[4-[4-(4-hydroxypiperidin-1-yl)anilino]-5-oxo-6H-pyrimido[4,5-d]pyridazin-2-yl]piperidin-4-yl]acetonitrile

> <PUBCHEM_IUPAC_SYSTEMATIC_NAME>
2-[1-[5-oxidanylidene-4-[[4-(4-oxidanylpiperidin-1-yl)phenyl]amino]-6H-pyrimido[4,5-d]pyridazin-2-yl]piperidin-4-yl]ethanenitrile

> <PUBCHEM_IUPAC_TRADITIONAL_NAME>
2-[1-[4-[4-(4-hydroxypiperidino)anilino]-5-keto-6H-pyrimido[4,5-d]pyridazin-2-yl]-4-piperidyl]acetonitrile

> <PUBCHEM_IUPAC_INCHI>
InChI=1S/C24H28N8O2/c25-10-5-16-6-11-32(12-7-16)24-28-20-15-26-30-23(34)21(20)22(29-24)27-17-1-3-18(4-2-17)31-13-8-19(33)9-14-31/h1-4,15-16,19,33H,5-9,11-14H2,(H,30,34)(H,27,28,29)

> <PUBCHEM_IUPAC_INCHIKEY>
NLFLXLJXEIUQDL-UHFFFAOYSA-N

> <PUBCHEM_XLOGP3_AA>
2.6

> <PUBCHEM_EXACT_MASS>
460.23352217

> <PUBCHEM_MOLECULAR_FORMULA>
C24H28N8O2

> <PUBCHEM_MOLECULAR_WEIGHT>
460.5

> <PUBCHEM_OPENEYE_CAN_SMILES>
C1CN(CCC1CC#N)C2=NC3=C(C(=O)NN=C3)C(=N2)NC4=CC=C(C=C4)N5CCC(CC5)O

> <PUBCHEM_OPENEYE_ISO_SMILES>
C1CN(CCC1CC#N)C2=NC3=C(C(=O)NN=C3)C(=N2)NC4=CC=C(C=C4)N5CCC(CC5)O

> <PUBCHEM_CACTVS_TPSA>
130

> <PUBCHEM_MONOISOTOPIC_WEIGHT>
460.23352217

> <PUBCHEM_TOTAL_CHARGE>
0

> <PUBCHEM_HEAVY_ATOM_COUNT>
34

> <PUBCHEM_ATOM_DEF_STEREO_COUNT>
0

> <PUBCHEM_ATOM_UDEF_STEREO_COUNT>
0

> <PUBCHEM_BOND_DEF_STEREO_COUNT>
0

> <PUBCHEM_BOND_UDEF_STEREO_COUNT>
0

> <PUBCHEM_ISOTOPIC_ATOM_COUNT>
0

> <PUBCHEM_COMPONENT_COUNT>
1

> <PUBCHEM_CACTVS_TAUTO_COUNT>
-1

> <PUBCHEM_COORDINATE_TYPE>
1
5
255

> <PUBCHEM_BONDANNOTATIONS>
10  34  8
23  25  8
23  26  8
25  31  8
26  32  8
27  30  8
28  31  8
28  32  8
29  30  8
29  34  8
30  33  8
5  22  8
5  27  8
6  22  8
6  29  8
9  10  8
9  33  8

$$$$
156414
  -OEChem-11282412102D

 59 62  0     0  0  0  0  0  0999 V2000
   10.6418   -5.2772    0.0000 Cl  0  0  0  0  0  0  0  0  0  0  0  0
   12.3853   -4.2973    0.0000 F   0  0  0  0  0  0  0  0  0  0  0  0
    2.0000    4.7772    0.0000 O   0  0  0  0  0  0  0  0  0  0  0  0
    5.4641    0.7772    0.0000 O   0  0  0  0  0  0  0  0  0  0  0  0
    4.5981    0.2772    0.0000 O   0  0  0  0  0  0  0  0  0  0  0  0
    3.7320    3.7772    0.0000 N   0  0  0  0  0  0  0  0  0  0  0  0
    5.4641   -1.2228    0.0000 N   0  0  0  0  0  0  0  0  0  0  0  0
    8.9446   -2.2574    0.0000 N   0  0  0  0  0  0  0  0  0  0  0  0
    8.9561    0.8119    0.0000 N   0  0  0  0  0  0  0  0  0  0  0  0
    9.8622   -0.7436    0.0000 N   0  0  0  0  0  0  0  0  0  0  0  0
    4.5981    3.2772    0.0000 C   0  0  0  0  0  0  0  0  0  0  0  0
    3.7320    4.7772    0.0000 C   0  0  0  0  0  0  0  0  0  0  0  0
    2.8660    3.2772    0.0000 C   0  0  0  0  0  0  0  0  0  0  0  0
    4.5981    2.2772    0.0000 C   0  0  0  0  0  0  0  0  0  0  0  0
    2.8660    5.2772    0.0000 C   0  0  0  0  0  0  0  0  0  0  0  0
    2.0000    3.7772    0.0000 C   0  0  0  0  0  0  0  0  0  0  0  0
    5.4641    1.7772    0.0000 C   0  0  0  0  0  0  0  0  0  0  0  0
    6.3301    0.2772    0.0000 C   0  0  0  0  0  0  0  0  0  0  0  0
    6.3301   -0.7228    0.0000 C   0  0  0  0  0  0  0  0  0  0  0  0
    8.0622   -0.7228    0.0000 C   0  0  0  0  0  0  0  0  0  0  0  0
    7.1962    0.7772    0.0000 C   0  0  0  0  0  0  0  0  0  0  0  0
    8.0622    0.2772    0.0000 C   0  0  0  0  0  0  0  0  0  0  0  0
    7.1962   -1.2228    0.0000 C   0  0  0  0  0  0  0  0  0  0  0  0
    8.9561   -1.2574    0.0000 C   0  0  0  0  0  0  0  0  0  0  0  0
    9.8047   -2.7674    0.0000 C   0  0  0  0  0  0  0  0  0  0  0  0
    9.8622    0.2980    0.0000 C   0  0  0  0  0  0  0  0  0  0  0  0
    4.5981   -0.7228    0.0000 C   0  0  0  0  0  0  0  0  0  0  0  0
    9.7932   -3.7673    0.0000 C   0  0  0  0  0  0  0  0  0  0  0  0
   10.6765   -2.2774    0.0000 C   0  0  0  0  0  0  0  0  0  0  0  0
   10.6534   -4.2773    0.0000 C   0  0  0  0  0  0  0  0  0  0  0  0
   11.5367   -2.7874    0.0000 C   0  0  0  0  0  0  0  0  0  0  0  0
    3.7320   -1.2228    0.0000 C   0  0  0  0  0  0  0  0  0  0  0  0
   11.5251   -3.7873    0.0000 C   0  0  0  0  0  0  0  0  0  0  0  0
    2.8660   -0.7228    0.0000 C   0  0  0  0  0  0  0  0  0  0  0  0
    5.2087    3.1696    0.0000 H   0  0  0  0  0  0  0  0  0  0  0  0
    4.8101    3.8598    0.0000 H   0  0  0  0  0  0  0  0  0  0  0  0
    4.3426    4.6696    0.0000 H   0  0  0  0  0  0  0  0  0  0  0  0
    3.9441    5.3598    0.0000 H   0  0  0  0  0  0  0  0  0  0  0  0
    2.4675    2.8023    0.0000 H   0  0  0  0  0  0  0  0  0  0  0  0
    3.2646    2.8023    0.0000 H   0  0  0  0  0  0  0  0  0  0  0  0
    3.9875    2.3849    0.0000 H   0  0  0  0  0  0  0  0  0  0  0  0
    4.3860    1.6946    0.0000 H   0  0  0  0  0  0  0  0  0  0  0  0
    3.2646    5.7522    0.0000 H   0  0  0  0  0  0  0  0  0  0  0  0
    2.4675    5.7522    0.0000 H   0  0  0  0  0  0  0  0  0  0  0  0
    1.3894    3.8849    0.0000 H   0  0  0  0  0  0  0  0  0  0  0  0
    1.7880    3.1946    0.0000 H   0  0  0  0  0  0  0  0  0  0  0  0
    6.0747    1.6696    0.0000 H   0  0  0  0  0  0  0  0  0  0  0  0
    5.6762    2.3598    0.0000 H   0  0  0  0  0  0  0  0  0  0  0  0
    7.1962    1.3972    0.0000 H   0  0  0  0  0  0  0  0  0  0  0  0
    7.1962   -1.8428    0.0000 H   0  0  0  0  0  0  0  0  0  0  0  0
    5.4641   -1.8428    0.0000 H   0  0  0  0  0  0  0  0  0  0  0  0
    8.4041   -2.5612    0.0000 H   0  0  0  0  0  0  0  0  0  0  0  0
   10.3979    0.6101    0.0000 H   0  0  0  0  0  0  0  0  0  0  0  0
    9.2527   -4.0711    0.0000 H   0  0  0  0  0  0  0  0  0  0  0  0
   10.6837   -1.6574    0.0000 H   0  0  0  0  0  0  0  0  0  0  0  0
   12.0772   -2.4836    0.0000 H   0  0  0  0  0  0  0  0  0  0  0  0
    3.7320   -1.8428    0.0000 H   0  0  0  0  0  0  0  0  0  0  0  0
    2.8660   -0.1028    0.0000 H   0  0  0  0  0  0  0  0  0  0  0  0
    2.3291   -1.0328    0.0000 H   0  0  0  0  0  0  0  0  0  0  0  0
  1 30  1  0  0  0  0
  2 33  1  0  0  0  0
  3 15  1  0  0  0  0
  3 16  1  0  0  0  0
  4 17  1  0  0  0  0
  4 18  1  0  0  0  0
  5 27  2  0  0  0  0
  6 11  1  0  0  0  0
  6 12  1  0  0  0  0
  6 13  1  0  0  0  0
  7 19  1  0  0  0  0
  7 27  1  0  0  0  0
  7 51  1  0  0  0  0
  8 24  1  0  0  0  0
  8 25  1  0  0  0  0
  8 52  1  0  0  0  0
  9 22  1  0  0  0  0
  9 26  2  0  0  0  0
 10 24  2  0  0  0  0
 10 26  1  0  0  0  0
 11 14  1  0  0  0  0
 11 35  1  0  0  0  0
 11 36  1  0  0  0  0
 12 15  1  0  0  0  0
 12 37  1  0  0  0  0
 12 38  1  0  0  0  0
 13 16  1  0  0  0  0
 13 39  1  0  0  0  0
 13 40  1  0  0  0  0
 14 17  1  0  0  0  0
 14 41  1  0  0  0  0
 14 42  1  0  0  0  0
 15 43  1  0  0  0  0
 15 44  1  0  0  0  0
 16 45  1  0  0  0  0
 16 46  1  0  0  0  0
 17 47  1  0  0  0  0
 17 48  1  0  0  0  0
 18 19  2  0  0  0  0
 18 21  1  0  0  0  0
 19 23  1  0  0  0  0
 20 22  1  0  0  0  0
 20 23  2  0  0  0  0
 20 24  1  0  0  0  0
 21 22  2  0  0  0  0
 21 49  1  0  0  0  0
 23 50  1  0  0  0  0
 25 28  2  0  0  0  0
 25 29  1  0  0  0  0
 26 53  1  0  0  0  0
 27 32  1  0  0  0  0
 28 30  1  0  0  0  0
 28 54  1  0  0  0  0
 29 31  2  0  0  0  0
 29 55  1  0  0  0  0
 30 33  2  0  0  0  0
 31 33  1  0  0  0  0
 31 56  1  0  0  0  0
 32 34  2  0  0  0  0
 32 57  1  0  0  0  0
 34 58  1  0  0  0  0
 34 59  1  0  0  0  0
M  END
> <PUBCHEM_COMPOUND_CID>
156414

> <PUBCHEM_COMPOUND_CANONICALIZED>
1

> <PUBCHEM_CACTVS_COMPLEXITY>
671

> <PUBCHEM_CACTVS_HBOND_ACCEPTOR>
8

> <PUBCHEM_CACTVS_HBOND_DONOR>
2

> <PUBCHEM_CACTVS_ROTATABLE_BOND>
9

> <PUBCHEM_CACTVS_SUBSKEYS>
AAADceB7sQAEAAAAAAAAAAAAAAAAAAAAAAA8eIEAAAAAAACx9AAAHwIQAAAADA7hni419vfIFACoAydzdACCiCkxJ6AJ2CA/btiOLuLF+9uHPCju1BvY6KeQ0AMOIACAQgICEABAAQCEBAQgAAAAAAAAAA==

> <PUBCHEM_IUPAC_OPENEYE_NAME>
N-[4-(3-chloro-4-fluoro-anilino)-7-(3-morpholinopropoxy)quinazolin-6-yl]prop-2-enamide

> <PUBCHEM_IUPAC_CAS_NAME>
N-[4-(3-chloro-4-fluoroanilino)-7-[3-(4-morpholinyl)propoxy]-6-quinazolinyl]-2-propenamide

> <PUBCHEM_IUPAC_NAME_MARKUP>
<I>N</I>-[4-(3-chloro-4-fluoroanilino)-7-(3-morpholin-4-ylpropoxy)quinazolin-6-yl]prop-2-enamide

> <PUBCHEM_IUPAC_NAME>
N-[4-(3-chloro-4-fluoroanilino)-7-(3-morpholin-4-ylpropoxy)quinazolin-6-yl]prop-2-enamide

> <PUBCHEM_IUPAC_SYSTEMATIC_NAME>
N-[4-[(3-chloranyl-4-fluoranyl-phenyl)amino]-7-(3-morpholin-4-ylpropoxy)quinazolin-6-yl]prop-2-enamide

> <PUBCHEM_IUPAC_TRADITIONAL_NAME>
N-[4-(3-chloro-4-fluoro-anilino)-7-(3-morpholinopropoxy)quinazolin-6-yl]acrylamide

> <PUBCHEM_IUPAC_INCHI>
InChI=1S/C24H25ClFN5O3/c1-2-23(32)30-21-13-17-20(14-22(21)34-9-3-6-31-7-10-33-11-8-31)27-15-28-24(17)29-16-4-5-19(26)18(25)12-16/h2,4-5,12-15H,1,3,6-11H2,(H,30,32)(H,27,28,29)

> <PUBCHEM_IUPAC_INCHIKEY>
OMZCMEYTWSXEPZ-UHFFFAOYSA-N

> <PUBCHEM_XLOGP3_AA>
3.9

> <PUBCHEM_EXACT_MASS>
485.1629955

> <PUBCHEM_MOLECULAR_FORMULA>
C24H25ClFN5O3

> <PUBCHEM_MOLECULAR_WEIGHT>
485.9

> <PUBCHEM_OPENEYE_CAN_SMILES>
C=CC(=O)NC1=C(C=C2C(=C1)C(=NC=N2)NC3=CC(=C(C=C3)F)Cl)OCCCN4CCOCC4

> <PUBCHEM_OPENEYE_ISO_SMILES>
C=CC(=O)NC1=C(C=C2C(=C1)C(=NC=N2)NC3=CC(=C(C=C3)F)Cl)OCCCN4CCOCC4

> <PUBCHEM_CACTVS_TPSA>
88.6

> <PUBCHEM_MONOISOTOPIC_WEIGHT>
485.1629955

> <PUBCHEM_TOTAL_CHARGE>
0

> <PUBCHEM_HEAVY_ATOM_COUNT>
34

> <PUBCHEM_ATOM_DEF_STEREO_COUNT>
0

> <PUBCHEM_ATOM_UDEF_STEREO_COUNT>
0

> <PUBCHEM_BOND_DEF_STEREO_COUNT>
0

> <PUBCHEM_BOND_UDEF_STEREO_COUNT>
0

> <PUBCHEM_ISOTOPIC_ATOM_COUNT>
0

> <PUBCHEM_COMPONENT_COUNT>
1

> <PUBCHEM_CACTVS_TAUTO_COUNT>
-1

> <PUBCHEM_COORDINATE_TYPE>
1
5
255

> <PUBCHEM_BONDANNOTATIONS>
10  24  8
10  26  8
18  19  8
18  21  8
19  23  8
20  22  8
20  23  8
20  24  8
21  22  8
25  28  8
25  29  8
28  30  8
29  31  8
30  33  8
31  33  8
9  22  8
9  26  8

$$$$
16063245
  -OEChem-11282412102D

 60 64  0     0  0  0  0  0  0999 V2000
    2.3660    2.6921    0.0000 F   0  0  0  0  0  0  0  0  0  0  0  0
    2.0000    1.3261    0.0000 F   0  0  0  0  0  0  0  0  0  0  0  0
    3.3660    0.9600    0.0000 F   0  0  0  0  0  0  0  0  0  0  0  0
    5.4641    0.3261    0.0000 O   0  0  0  0  0  0  0  0  0  0  0  0
    4.5981    4.8261    0.0000 N   0  0  0  0  0  0  0  0  0  0  0  0
    6.3301    1.8261    0.0000 N   0  0  0  0  0  0  0  0  0  0  0  0
    8.0622   -2.1739    0.0000 N   0  0  0  0  0  0  0  0  0  0  0  0
    4.0981    6.3649    0.0000 N   0  0  0  0  0  0  0  0  0  0  0  0
    7.1962   -3.6739    0.0000 N   0  0  0  0  0  0  0  0  0  0  0  0
    6.3301   -2.1739    0.0000 N   0  0  0  0  0  0  0  0  0  0  0  0
    5.4641   -5.6739    0.0000 N   0  0  0  0  0  0  0  0  0  0  0  0
    7.1962   -6.6739    0.0000 N   0  0  0  0  0  0  0  0  0  0  0  0
    4.5981    3.8261    0.0000 C   0  0  0  0  0  0  0  0  0  0  0  0
    5.4641    2.3261    0.0000 C   0  0  0  0  0  0  0  0  0  0  0  0
    3.7320    2.3261    0.0000 C   0  0  0  0  0  0  0  0  0  0  0  0
    5.4641    3.3261    0.0000 C   0  0  0  0  0  0  0  0  0  0  0  0
    3.7320    3.3261    0.0000 C   0  0  0  0  0  0  0  0  0  0  0  0
    4.5981    1.8261    0.0000 C   0  0  0  0  0  0  0  0  0  0  0  0
    7.1962    0.3261    0.0000 C   0  0  0  0  0  0  0  0  0  0  0  0
    8.0622   -1.1739    0.0000 C   0  0  0  0  0  0  0  0  0  0  0  0
    8.9282   -0.6739    0.0000 C   0  0  0  0  0  0  0  0  0  0  0  0
    7.1962   -0.6739    0.0000 C   0  0  0  0  0  0  0  0  0  0  0  0
    6.3301    0.8261    0.0000 C   0  0  0  0  0  0  0  0  0  0  0  0
    5.4071    5.4139    0.0000 C   0  0  0  0  0  0  0  0  0  0  0  0
    8.0622    0.8261    0.0000 C   0  0  0  0  0  0  0  0  0  0  0  0
    8.9282    0.3261    0.0000 C   0  0  0  0  0  0  0  0  0  0  0  0
    2.8660    1.8261    0.0000 C   0  0  0  0  0  0  0  0  0  0  0  0
    3.7891    5.4139    0.0000 C   0  0  0  0  0  0  0  0  0  0  0  0
    5.0981    6.3649    0.0000 C   0  0  0  0  0  0  0  0  0  0  0  0
    9.7942   -1.1739    0.0000 C   0  0  0  0  0  0  0  0  0  0  0  0
    5.6859    7.1739    0.0000 C   0  0  0  0  0  0  0  0  0  0  0  0
    7.1962   -2.6739    0.0000 C   0  0  0  0  0  0  0  0  0  0  0  0
    6.3301   -4.1739    0.0000 C   0  0  0  0  0  0  0  0  0  0  0  0
    5.4641   -3.6739    0.0000 C   0  0  0  0  0  0  0  0  0  0  0  0
    5.4641   -2.6739    0.0000 C   0  0  0  0  0  0  0  0  0  0  0  0
    6.3301   -5.1739    0.0000 C   0  0  0  0  0  0  0  0  0  0  0  0
    7.1962   -5.6739    0.0000 C   0  0  0  0  0  0  0  0  0  0  0  0
    5.4641   -6.6739    0.0000 C   0  0  0  0  0  0  0  0  0  0  0  0
    6.3301   -7.1739    0.0000 C   0  0  0  0  0  0  0  0  0  0  0  0
    6.0010    3.6361    0.0000 H   0  0  0  0  0  0  0  0  0  0  0  0
    3.1951    3.6361    0.0000 H   0  0  0  0  0  0  0  0  0  0  0  0
    4.5981    1.2061    0.0000 H   0  0  0  0  0  0  0  0  0  0  0  0
    6.8671    2.1361    0.0000 H   0  0  0  0  0  0  0  0  0  0  0  0
    6.6592   -0.9839    0.0000 H   0  0  0  0  0  0  0  0  0  0  0  0
    5.9967    5.2223    0.0000 H   0  0  0  0  0  0  0  0  0  0  0  0
    8.0622    1.4461    0.0000 H   0  0  0  0  0  0  0  0  0  0  0  0
    9.4651    0.6361    0.0000 H   0  0  0  0  0  0  0  0  0  0  0  0
    3.1994    5.2223    0.0000 H   0  0  0  0  0  0  0  0  0  0  0  0
    8.5991   -2.4839    0.0000 H   0  0  0  0  0  0  0  0  0  0  0  0
    9.4842   -1.7109    0.0000 H   0  0  0  0  0  0  0  0  0  0  0  0
   10.3312   -1.4839    0.0000 H   0  0  0  0  0  0  0  0  0  0  0  0
   10.1042   -0.6370    0.0000 H   0  0  0  0  0  0  0  0  0  0  0  0
    6.1874    6.8095    0.0000 H   0  0  0  0  0  0  0  0  0  0  0  0
    6.0503    7.6755    0.0000 H   0  0  0  0  0  0  0  0  0  0  0  0
    5.1843    7.5384    0.0000 H   0  0  0  0  0  0  0  0  0  0  0  0
    4.9272   -3.9839    0.0000 H   0  0  0  0  0  0  0  0  0  0  0  0
    4.9272   -2.3639    0.0000 H   0  0  0  0  0  0  0  0  0  0  0  0
    7.7331   -5.3639    0.0000 H   0  0  0  0  0  0  0  0  0  0  0  0
    4.9272   -6.9839    0.0000 H   0  0  0  0  0  0  0  0  0  0  0  0
    6.3301   -7.7939    0.0000 H   0  0  0  0  0  0  0  0  0  0  0  0
  1 27  1  0  0  0  0
  2 27  1  0  0  0  0
  3 27  1  0  0  0  0
  4 23  2  0  0  0  0
  5 13  1  0  0  0  0
  5 24  1  0  0  0  0
  5 28  1  0  0  0  0
  6 14  1  0  0  0  0
  6 23  1  0  0  0  0
  6 43  1  0  0  0  0
  7 20  1  0  0  0  0
  7 32  1  0  0  0  0
  7 49  1  0  0  0  0
  8 28  2  0  0  0  0
  8 29  1  0  0  0  0
  9 32  1  0  0  0  0
  9 33  2  0  0  0  0
 10 32  2  0  0  0  0
 10 35  1  0  0  0  0
 11 36  2  0  0  0  0
 11 38  1  0  0  0  0
 12 37  2  0  0  0  0
 12 39  1  0  0  0  0
 13 16  1  0  0  0  0
 13 17  2  0  0  0  0
 14 16  2  0  0  0  0
 14 18  1  0  0  0  0
 15 17  1  0  0  0  0
 15 18  2  0  0  0  0
 15 27  1  0  0  0  0
 16 40  1  0  0  0  0
 17 41  1  0  0  0  0
 18 42  1  0  0  0  0
 19 22  2  0  0  0  0
 19 23  1  0  0  0  0
 19 25  1  0  0  0  0
 20 21  2  0  0  0  0
 20 22  1  0  0  0  0
 21 26  1  0  0  0  0
 21 30  1  0  0  0  0
 22 44  1  0  0  0  0
 24 29  2  0  0  0  0
 24 45  1  0  0  0  0
 25 26  2  0  0  0  0
 25 46  1  0  0  0  0
 26 47  1  0  0  0  0
 28 48  1  0  0  0  0
 29 31  1  0  0  0  0
 30 50  1  0  0  0  0
 30 51  1  0  0  0  0
 30 52  1  0  0  0  0
 31 53  1  0  0  0  0
 31 54  1  0  0  0  0
 31 55  1  0  0  0  0
 33 34  1  0  0  0  0
 33 36  1  0  0  0  0
 34 35  2  0  0  0  0
 34 56  1  0  0  0  0
 35 57  1  0  0  0  0
 36 37  1  0  0  0  0
 37 58  1  0  0  0  0
 38 39  2  0  0  0  0
 38 59  1  0  0  0  0
 39 60  1  0  0  0  0
M  END
> <PUBCHEM_COMPOUND_CID>
16063245

> <PUBCHEM_COMPOUND_CANONICALIZED>
1

> <PUBCHEM_CACTVS_COMPLEXITY>
818

> <PUBCHEM_CACTVS_HBOND_ACCEPTOR>
10

> <PUBCHEM_CACTVS_HBOND_DONOR>
2

> <PUBCHEM_CACTVS_ROTATABLE_BOND>
6

> <PUBCHEM_CACTVS_SUBSKEYS>
AAADceB74YAAAAAAAAAAAAAAAAAAAWAAAAA8eIEAAAAAAAAB/AAAHwAQAAAADAjBnhQ/0JfMEACoAzV3dACCgC01EqAJ2CE4dNiIaPLA3dGUJQholALIyacciACOQAAAQAQCAACAAACACAQAAAAAAAAAAA==

> <PUBCHEM_IUPAC_OPENEYE_NAME>
4-methyl-N-[3-(4-methylimidazol-1-yl)-5-(trifluoromethyl)phenyl]-3-[(4-pyrazin-2-ylpyrimidin-2-yl)amino]benzamide

> <PUBCHEM_IUPAC_CAS_NAME>
4-methyl-N-[3-(4-methyl-1-imidazolyl)-5-(trifluoromethyl)phenyl]-3-[[4-(2-pyrazinyl)-2-pyrimidinyl]amino]benzamide

> <PUBCHEM_IUPAC_NAME_MARKUP>
4-methyl-<I>N</I>-[3-(4-methylimidazol-1-yl)-5-(trifluoromethyl)phenyl]-3-[(4-pyrazin-2-ylpyrimidin-2-yl)amino]benzamide

> <PUBCHEM_IUPAC_NAME>
4-methyl-N-[3-(4-methylimidazol-1-yl)-5-(trifluoromethyl)phenyl]-3-[(4-pyrazin-2-ylpyrimidin-2-yl)amino]benzamide

> <PUBCHEM_IUPAC_SYSTEMATIC_NAME>
4-methyl-N-[3-(4-methylimidazol-1-yl)-5-(trifluoromethyl)phenyl]-3-[(4-pyrazin-2-ylpyrimidin-2-yl)amino]benzamide

> <PUBCHEM_IUPAC_TRADITIONAL_NAME>
4-methyl-N-[3-(4-methylimidazol-1-yl)-5-(trifluoromethyl)phenyl]-3-[(4-pyrazin-2-ylpyrimidin-2-yl)amino]benzamide

> <PUBCHEM_IUPAC_INCHI>
InChI=1S/C27H21F3N8O/c1-16-3-4-18(9-23(16)37-26-33-6-5-22(36-26)24-13-31-7-8-32-24)25(39)35-20-10-19(27(28,29)30)11-21(12-20)38-14-17(2)34-15-38/h3-15H,1-2H3,(H,35,39)(H,33,36,37)

> <PUBCHEM_IUPAC_INCHIKEY>
DUPWHXBITIZIKZ-UHFFFAOYSA-N

> <PUBCHEM_XLOGP3_AA>
3.9

> <PUBCHEM_EXACT_MASS>
530.17904181

> <PUBCHEM_MOLECULAR_FORMULA>
C27H21F3N8O

> <PUBCHEM_MOLECULAR_WEIGHT>
530.5

> <PUBCHEM_OPENEYE_CAN_SMILES>
CC1=C(C=C(C=C1)C(=O)NC2=CC(=CC(=C2)C(F)(F)F)N3C=C(N=C3)C)NC4=NC=CC(=N4)C5=NC=CN=C5

> <PUBCHEM_OPENEYE_ISO_SMILES>
CC1=C(C=C(C=C1)C(=O)NC2=CC(=CC(=C2)C(F)(F)F)N3C=C(N=C3)C)NC4=NC=CC(=N4)C5=NC=CN=C5

> <PUBCHEM_CACTVS_TPSA>
111

> <PUBCHEM_MONOISOTOPIC_WEIGHT>
530.17904181

> <PUBCHEM_TOTAL_CHARGE>
0

> <PUBCHEM_HEAVY_ATOM_COUNT>
39

> <PUBCHEM_ATOM_DEF_STEREO_COUNT>
0

> <PUBCHEM_ATOM_UDEF_STEREO_COUNT>
0

> <PUBCHEM_BOND_DEF_STEREO_COUNT>
0

> <PUBCHEM_BOND_UDEF_STEREO_COUNT>
0

> <PUBCHEM_ISOTOPIC_ATOM_COUNT>
0

> <PUBCHEM_COMPONENT_COUNT>
1

> <PUBCHEM_CACTVS_TAUTO_COUNT>
-1

> <PUBCHEM_COORDINATE_TYPE>
1
5
255

> <PUBCHEM_BONDANNOTATIONS>
10  32  8
10  35  8
11  36  8
11  38  8
12  37  8
12  39  8
13  16  8
13  17  8
14  16  8
14  18  8
15  17  8
15  18  8
19  22  8
19  25  8
20  21  8
20  22  8
21  26  8
24  29  8
25  26  8
33  34  8
34  35  8
36  37  8
38  39  8
5  24  8
5  28  8
8  28  8
8  29  8
9  32  8
9  33  8

$$$$
25100013
  -OEChem-11282412102D

 70 72  0     0  0  0  0  0  0999 V2000
    8.3680    1.0369    0.0000 S   0  0  0  0  0  0  0  0  0  0  0  0
   16.1254    8.0230    0.0000 O   0  0  0  0  0  0  0  0  0  0  0  0
   11.7953    9.5230    0.0000 O   0  0  0  0  0  0  0  0  0  0  0  0
    4.8671    7.5230    0.0000 O   0  0  0  0  0  0  0  0  0  0  0  0
    9.2340    1.5369    0.0000 O   0  0  0  0  0  0  0  0  0  0  0  0
    7.8680    1.9030    0.0000 O   0  0  0  0  0  0  0  0  0  0  0  0
    8.8680    0.1709    0.0000 O   0  0  0  0  0  0  0  0  0  0  0  0
   14.3933    9.0230    0.0000 N   0  0  0  0  0  0  0  0  0  0  0  0
    7.4651    6.0230    0.0000 N   0  0  0  0  0  0  0  0  0  0  0  0
    4.0010    6.0230    0.0000 N   0  0  0  0  0  0  0  0  0  0  0  0
   15.2594    9.5230    0.0000 C   0  0  0  0  0  0  0  0  0  0  0  0
   14.3933    8.0230    0.0000 C   0  0  0  0  0  0  0  0  0  0  0  0
   13.5273    9.5230    0.0000 C   0  0  0  0  0  0  0  0  0  0  0  0
   16.1254    9.0230    0.0000 C   0  0  0  0  0  0  0  0  0  0  0  0
   15.2594    7.5230    0.0000 C   0  0  0  0  0  0  0  0  0  0  0  0
   12.6613    9.0230    0.0000 C   0  0  0  0  0  0  0  0  0  0  0  0
   10.9292    9.0230    0.0000 C   0  0  0  0  0  0  0  0  0  0  0  0
   10.0632    9.5230    0.0000 C   0  0  0  0  0  0  0  0  0  0  0  0
   10.9292    8.0230    0.0000 C   0  0  0  0  0  0  0  0  0  0  0  0
    9.1972    8.0230    0.0000 C   0  0  0  0  0  0  0  0  0  0  0  0
    9.1972    9.0230    0.0000 C   0  0  0  0  0  0  0  0  0  0  0  0
   10.0632    7.5230    0.0000 C   0  0  0  0  0  0  0  0  0  0  0  0
    8.3312    7.5230    0.0000 C   0  0  0  0  0  0  0  0  0  0  0  0
    6.5991    6.5230    0.0000 C   0  0  0  0  0  0  0  0  0  0  0  0
    7.4651    8.0230    0.0000 C   0  0  0  0  0  0  0  0  0  0  0  0
    5.7331    6.0230    0.0000 C   0  0  0  0  0  0  0  0  0  0  0  0
    8.3312    6.5230    0.0000 C   0  0  0  0  0  0  0  0  0  0  0  0
    6.5991    7.5230    0.0000 C   0  0  0  0  0  0  0  0  0  0  0  0
    3.1350    6.5230    0.0000 C   0  0  0  0  0  0  0  0  0  0  0  0
    4.8671    6.5230    0.0000 C   0  0  0  0  0  0  0  0  0  0  0  0
    2.2690    6.0230    0.0000 C   0  0  0  0  0  0  0  0  0  0  0  0
    2.2690    5.0230    0.0000 C   0  0  0  0  0  0  0  0  0  0  0  0
    1.4030    6.5230    0.0000 C   0  0  0  0  0  0  0  0  0  0  0  0
    1.4030    4.5230    0.0000 C   0  0  0  0  0  0  0  0  0  0  0  0
    0.5369    6.0230    0.0000 C   0  0  0  0  0  0  0  0  0  0  0  0
    0.5369    5.0230    0.0000 C   0  0  0  0  0  0  0  0  0  0  0  0
    7.5020    0.5369    0.0000 C   0  0  0  0  0  0  0  0  0  0  0  0
   15.6579    9.9979    0.0000 H   0  0  0  0  0  0  0  0  0  0  0  0
   14.8608    9.9979    0.0000 H   0  0  0  0  0  0  0  0  0  0  0  0
   13.7828    8.1306    0.0000 H   0  0  0  0  0  0  0  0  0  0  0  0
   14.1813    7.4404    0.0000 H   0  0  0  0  0  0  0  0  0  0  0  0
   13.9258    9.9979    0.0000 H   0  0  0  0  0  0  0  0  0  0  0  0
   13.1288    9.9979    0.0000 H   0  0  0  0  0  0  0  0  0  0  0  0
   16.7360    8.9153    0.0000 H   0  0  0  0  0  0  0  0  0  0  0  0
   16.3374    9.6056    0.0000 H   0  0  0  0  0  0  0  0  0  0  0  0
   14.8608    7.0480    0.0000 H   0  0  0  0  0  0  0  0  0  0  0  0
   15.6579    7.0480    0.0000 H   0  0  0  0  0  0  0  0  0  0  0  0
   12.2628    8.5480    0.0000 H   0  0  0  0  0  0  0  0  0  0  0  0
   13.0598    8.5480    0.0000 H   0  0  0  0  0  0  0  0  0  0  0  0
   10.0632   10.1430    0.0000 H   0  0  0  0  0  0  0  0  0  0  0  0
   11.4662    7.7130    0.0000 H   0  0  0  0  0  0  0  0  0  0  0  0
    8.6602    9.3330    0.0000 H   0  0  0  0  0  0  0  0  0  0  0  0
   10.0632    6.9030    0.0000 H   0  0  0  0  0  0  0  0  0  0  0  0
    7.4651    8.6430    0.0000 H   0  0  0  0  0  0  0  0  0  0  0  0
    5.3346    5.5480    0.0000 H   0  0  0  0  0  0  0  0  0  0  0  0
    6.1316    5.5480    0.0000 H   0  0  0  0  0  0  0  0  0  0  0  0
    8.8681    6.2130    0.0000 H   0  0  0  0  0  0  0  0  0  0  0  0
    6.0622    7.8330    0.0000 H   0  0  0  0  0  0  0  0  0  0  0  0
    3.5335    6.9979    0.0000 H   0  0  0  0  0  0  0  0  0  0  0  0
    2.7365    6.9979    0.0000 H   0  0  0  0  0  0  0  0  0  0  0  0
    4.0010    5.4030    0.0000 H   0  0  0  0  0  0  0  0  0  0  0  0
    2.8059    4.7130    0.0000 H   0  0  0  0  0  0  0  0  0  0  0  0
    1.4030    7.1430    0.0000 H   0  0  0  0  0  0  0  0  0  0  0  0
    1.4030    3.9030    0.0000 H   0  0  0  0  0  0  0  0  0  0  0  0
    0.0000    6.3330    0.0000 H   0  0  0  0  0  0  0  0  0  0  0  0
    0.0000    4.7130    0.0000 H   0  0  0  0  0  0  0  0  0  0  0  0
    7.1920    1.0739    0.0000 H   0  0  0  0  0  0  0  0  0  0  0  0
    6.9650    0.2269    0.0000 H   0  0  0  0  0  0  0  0  0  0  0  0
    7.8120    0.0000    0.0000 H   0  0  0  0  0  0  0  0  0  0  0  0
    9.7709    1.2269    0.0000 H   0  0  0  0  0  0  0  0  0  0  0  0
  1  5  1  0  0  0  0
  1  6  2  0  0  0  0
  1  7  2  0  0  0  0
  1 37  1  0  0  0  0
  2 14  1  0  0  0  0
  2 15  1  0  0  0  0
  3 16  1  0  0  0  0
  3 17  1  0  0  0  0
  4 30  2  0  0  0  0
  5 70  1  0  0  0  0
  8 11  1  0  0  0  0
  8 12  1  0  0  0  0
  8 13  1  0  0  0  0
  9 24  2  0  0  0  0
  9 27  1  0  0  0  0
 10 29  1  0  0  0  0
 10 30  1  0  0  0  0
 10 61  1  0  0  0  0
 11 14  1  0  0  0  0
 11 38  1  0  0  0  0
 11 39  1  0  0  0  0
 12 15  1  0  0  0  0
 12 40  1  0  0  0  0
 12 41  1  0  0  0  0
 13 16  1  0  0  0  0
 13 42  1  0  0  0  0
 13 43  1  0  0  0  0
 14 44  1  0  0  0  0
 14 45  1  0  0  0  0
 15 46  1  0  0  0  0
 15 47  1  0  0  0  0
 16 48  1  0  0  0  0
 16 49  1  0  0  0  0
 17 18  2  0  0  0  0
 17 19  1  0  0  0  0
 18 21  1  0  0  0  0
 18 50  1  0  0  0  0
 19 22  2  0  0  0  0
 19 51  1  0  0  0  0
 20 21  2  0  0  0  0
 20 22  1  0  0  0  0
 20 23  1  0  0  0  0
 21 52  1  0  0  0  0
 22 53  1  0  0  0  0
 23 25  1  0  0  0  0
 23 27  2  0  0  0  0
 24 26  1  0  0  0  0
 24 28  1  0  0  0  0
 25 28  2  0  0  0  0
 25 54  1  0  0  0  0
 26 30  1  0  0  0  0
 26 55  1  0  0  0  0
 26 56  1  0  0  0  0
 27 57  1  0  0  0  0
 28 58  1  0  0  0  0
 29 31  1  0  0  0  0
 29 59  1  0  0  0  0
 29 60  1  0  0  0  0
 31 32  2  0  0  0  0
 31 33  1  0  0  0  0
 32 34  1  0  0  0  0
 32 62  1  0  0  0  0
 33 35  2  0  0  0  0
 33 63  1  0  0  0  0
 34 36  2  0  0  0  0
 34 64  1  0  0  0  0
 35 36  1  0  0  0  0
 35 65  1  0  0  0  0
 36 66  1  0  0  0  0
 37 67  1  0  0  0  0
 37 68  1  0  0  0  0
 37 69  1  0  0  0  0
M  END
> <PUBCHEM_COMPOUND_CID>
25100013

> <PUBCHEM_COMPOUND_CANONICALIZED>
1

> <PUBCHEM_CACTVS_COMPLEXITY>
633

> <PUBCHEM_CACTVS_HBOND_ACCEPTOR>
8

> <PUBCHEM_CACTVS_HBOND_DONOR>
2

> <PUBCHEM_CACTVS_ROTATABLE_BOND>
9

> <PUBCHEM_CACTVS_SUBSKEYS>
AAADcfB7OABAAAAAAAAAAAAAAAAAAAAAAAA8eIEAAAAAAAAB0AAAHgQQCAAADAzhnga+hpPIFIKoAzV3VHCCiCAxIiAI2KE+bJgOJvrE9ZuHOCjk1hHY6AeYyPCOoAAAAAAAAABAAAAAAAAAAAAAAAAAAA==

> <PUBCHEM_IUPAC_OPENEYE_NAME>
N-benzyl-2-[5-[4-(2-morpholinoethoxy)phenyl]-2-pyridyl]acetamide;methanesulfonic acid

> <PUBCHEM_IUPAC_CAS_NAME>
methanesulfonic acid;2-[5-[4-[2-(4-morpholinyl)ethoxy]phenyl]-2-pyridinyl]-N-(phenylmethyl)acetamide

> <PUBCHEM_IUPAC_NAME_MARKUP>
<I>N</I>-benzyl-2-[5-[4-(2-morpholin-4-ylethoxy)phenyl]pyridin-2-yl]acetamide;methanesulfonic acid

> <PUBCHEM_IUPAC_NAME>
N-benzyl-2-[5-[4-(2-morpholin-4-ylethoxy)phenyl]pyridin-2-yl]acetamide;methanesulfonic acid

> <PUBCHEM_IUPAC_SYSTEMATIC_NAME>
methanesulfonic acid;2-[5-[4-(2-morpholin-4-ylethoxy)phenyl]pyridin-2-yl]-N-(phenylmethyl)ethanamide

> <PUBCHEM_IUPAC_TRADITIONAL_NAME>
N-benzyl-2-[5-[4-(2-morpholinoethoxy)phenyl]-2-pyridyl]acetamide;mesylic acid

> <PUBCHEM_IUPAC_INCHI>
InChI=1S/C26H29N3O3.CH4O3S/c30-26(28-19-21-4-2-1-3-5-21)18-24-9-6-23(20-27-24)22-7-10-25(11-8-22)32-17-14-29-12-15-31-16-13-29;1-5(2,3)4/h1-11,20H,12-19H2,(H,28,30);1H3,(H,2,3,4)

> <PUBCHEM_IUPAC_INCHIKEY>
JGSYRKUPDSSTCB-UHFFFAOYSA-N

> <PUBCHEM_EXACT_MASS>
527.20900695

> <PUBCHEM_MOLECULAR_FORMULA>
C27H33N3O6S

> <PUBCHEM_MOLECULAR_WEIGHT>
527.6

> <PUBCHEM_OPENEYE_CAN_SMILES>
CS(=O)(=O)O.C1COCCN1CCOC2=CC=C(C=C2)C3=CN=C(C=C3)CC(=O)NCC4=CC=CC=C4

> <PUBCHEM_OPENEYE_ISO_SMILES>
CS(=O)(=O)O.C1COCCN1CCOC2=CC=C(C=C2)C3=CN=C(C=C3)CC(=O)NCC4=CC=CC=C4

> <PUBCHEM_CACTVS_TPSA>
126

> <PUBCHEM_MONOISOTOPIC_WEIGHT>
527.20900695

> <PUBCHEM_TOTAL_CHARGE>
0

> <PUBCHEM_HEAVY_ATOM_COUNT>
37

> <PUBCHEM_ATOM_DEF_STEREO_COUNT>
0

> <PUBCHEM_ATOM_UDEF_STEREO_COUNT>
0

> <PUBCHEM_BOND_DEF_STEREO_COUNT>
0

> <PUBCHEM_BOND_UDEF_STEREO_COUNT>
0

> <PUBCHEM_ISOTOPIC_ATOM_COUNT>
0

> <PUBCHEM_COMPONENT_COUNT>
2

> <PUBCHEM_CACTVS_TAUTO_COUNT>
-1

> <PUBCHEM_COORDINATE_TYPE>
1
5
255

> <PUBCHEM_BONDANNOTATIONS>
17  18  8
17  19  8
18  21  8
19  22  8
20  21  8
20  22  8
23  25  8
23  27  8
24  28  8
25  28  8
31  32  8
31  33  8
32  34  8
33  35  8
34  36  8
35  36  8
9  24  8
9  27  8

$$$$
44603362
  -OEChem-11282412102D

 52 56  0     0  0  0  0  0  0999 V2000
    5.9227   -2.7795    0.0000 O   0  0  0  0  0  0  0  0  0  0  0  0
    8.4526    4.4525    0.0000 O   0  0  0  0  0  0  0  0  0  0  0  0
    4.1907   -2.7795    0.0000 N   0  0  0  0  0  0  0  0  0  0  0  0
    8.4526    2.7205    0.0000 N   0  0  0  0  0  0  0  0  0  0  0  0
    5.9227    2.2205    0.0000 N   0  0  0  0  0  0  0  0  0  0  0  0
    6.8689    1.9158    0.0000 N   0  0  0  0  0  0  0  0  0  0  0  0
    6.8689    3.5252    0.0000 N   0  0  0  0  0  0  0  0  0  0  0  0
    2.9659   -3.4866    0.0000 C   0  0  0  0  0  0  0  0  0  0  0  0
    3.2247   -2.5207    0.0000 C   0  0  0  0  0  0  0  0  0  0  0  0
    3.9318   -3.7454    0.0000 C   0  0  0  0  0  0  0  0  0  0  0  0
    9.9526    3.5865    0.0000 C   0  0  0  0  0  0  0  0  0  0  0  0
   10.8186    3.0865    0.0000 C   0  0  0  0  0  0  0  0  0  0  0  0
   10.8186    4.0865    0.0000 C   0  0  0  0  0  0  0  0  0  0  0  0
    2.7071   -4.4525    0.0000 C   0  0  0  0  0  0  0  0  0  0  0  0
    2.0000   -3.2278    0.0000 C   0  0  0  0  0  0  0  0  0  0  0  0
    5.0567   -2.2795    0.0000 C   0  0  0  0  0  0  0  0  0  0  0  0
    8.9526    3.5865    0.0000 C   0  0  0  0  0  0  0  0  0  0  0  0
    5.0567   -1.2795    0.0000 C   0  0  0  0  0  0  0  0  0  0  0  0
    4.1907   -0.7795    0.0000 C   0  0  0  0  0  0  0  0  0  0  0  0
    5.9227   -0.7795    0.0000 C   0  0  0  0  0  0  0  0  0  0  0  0
    7.4526    2.7205    0.0000 C   0  0  0  0  0  0  0  0  0  0  0  0
    5.0567    0.7205    0.0000 C   0  0  0  0  0  0  0  0  0  0  0  0
    4.1907    0.2205    0.0000 C   0  0  0  0  0  0  0  0  0  0  0  0
    5.9227    0.2205    0.0000 C   0  0  0  0  0  0  0  0  0  0  0  0
    5.0567    1.7205    0.0000 C   0  0  0  0  0  0  0  0  0  0  0  0
    5.9227    3.2205    0.0000 C   0  0  0  0  0  0  0  0  0  0  0  0
    4.1907    2.2205    0.0000 C   0  0  0  0  0  0  0  0  0  0  0  0
    5.0567    3.7205    0.0000 C   0  0  0  0  0  0  0  0  0  0  0  0
    4.1907    3.2205    0.0000 C   0  0  0  0  0  0  0  0  0  0  0  0
    3.3852   -1.9218    0.0000 H   0  0  0  0  0  0  0  0  0  0  0  0
    2.6259   -2.3602    0.0000 H   0  0  0  0  0  0  0  0  0  0  0  0
    3.7714   -4.3443    0.0000 H   0  0  0  0  0  0  0  0  0  0  0  0
    4.5307   -3.9059    0.0000 H   0  0  0  0  0  0  0  0  0  0  0  0
    9.7921    4.1854    0.0000 H   0  0  0  0  0  0  0  0  0  0  0  0
   10.6065    2.5039    0.0000 H   0  0  0  0  0  0  0  0  0  0  0  0
   11.4292    2.9788    0.0000 H   0  0  0  0  0  0  0  0  0  0  0  0
   11.4292    4.1942    0.0000 H   0  0  0  0  0  0  0  0  0  0  0  0
   10.6065    4.6691    0.0000 H   0  0  0  0  0  0  0  0  0  0  0  0
    2.1082   -4.2921    0.0000 H   0  0  0  0  0  0  0  0  0  0  0  0
    2.5466   -5.0514    0.0000 H   0  0  0  0  0  0  0  0  0  0  0  0
    3.3060   -4.6130    0.0000 H   0  0  0  0  0  0  0  0  0  0  0  0
    2.1605   -2.6289    0.0000 H   0  0  0  0  0  0  0  0  0  0  0  0
    1.4011   -3.0673    0.0000 H   0  0  0  0  0  0  0  0  0  0  0  0
    1.8395   -3.8267    0.0000 H   0  0  0  0  0  0  0  0  0  0  0  0
    8.7625    2.1836    0.0000 H   0  0  0  0  0  0  0  0  0  0  0  0
    3.6537   -1.0895    0.0000 H   0  0  0  0  0  0  0  0  0  0  0  0
    6.4597   -1.0895    0.0000 H   0  0  0  0  0  0  0  0  0  0  0  0
    3.6537    0.5305    0.0000 H   0  0  0  0  0  0  0  0  0  0  0  0
    6.4597    0.5305    0.0000 H   0  0  0  0  0  0  0  0  0  0  0  0
    3.6537    1.9105    0.0000 H   0  0  0  0  0  0  0  0  0  0  0  0
    5.0567    4.3405    0.0000 H   0  0  0  0  0  0  0  0  0  0  0  0
    3.6537    3.5305    0.0000 H   0  0  0  0  0  0  0  0  0  0  0  0
  1 16  2  0  0  0  0
  2 17  2  0  0  0  0
  3  9  1  0  0  0  0
  3 10  1  0  0  0  0
  3 16  1  0  0  0  0
  4 17  1  0  0  0  0
  4 21  1  0  0  0  0
  4 45  1  0  0  0  0
  5  6  1  0  0  0  0
  5 25  1  0  0  0  0
  5 26  1  0  0  0  0
  6 21  2  0  0  0  0
  7 21  1  0  0  0  0
  7 26  2  0  0  0  0
  8  9  1  0  0  0  0
  8 10  1  0  0  0  0
  8 14  1  0  0  0  0
  8 15  1  0  0  0  0
  9 30  1  0  0  0  0
  9 31  1  0  0  0  0
 10 32  1  0  0  0  0
 10 33  1  0  0  0  0
 11 12  1  0  0  0  0
 11 13  1  0  0  0  0
 11 17  1  0  0  0  0
 11 34  1  0  0  0  0
 12 13  1  0  0  0  0
 12 35  1  0  0  0  0
 12 36  1  0  0  0  0
 13 37  1  0  0  0  0
 13 38  1  0  0  0  0
 14 39  1  0  0  0  0
 14 40  1  0  0  0  0
 14 41  1  0  0  0  0
 15 42  1  0  0  0  0
 15 43  1  0  0  0  0
 15 44  1  0  0  0  0
 16 18  1  0  0  0  0
 18 19  2  0  0  0  0
 18 20  1  0  0  0  0
 19 23  1  0  0  0  0
 19 46  1  0  0  0  0
 20 24  2  0  0  0  0
 20 47  1  0  0  0  0
 22 23  2  0  0  0  0
 22 24  1  0  0  0  0
 22 25  1  0  0  0  0
 23 48  1  0  0  0  0
 24 49  1  0  0  0  0
 25 27  2  0  0  0  0
 26 28  1  0  0  0  0
 27 29  1  0  0  0  0
 27 50  1  0  0  0  0
 28 29  2  0  0  0  0
 28 51  1  0  0  0  0
 29 52  1  0  0  0  0
M  END
> <PUBCHEM_COMPOUND_CID>
44603362

> <PUBCHEM_COMPOUND_CANONICALIZED>
1

> <PUBCHEM_CACTVS_COMPLEXITY>
648

> <PUBCHEM_CACTVS_HBOND_ACCEPTOR>
4

> <PUBCHEM_CACTVS_HBOND_DONOR>
1

> <PUBCHEM_CACTVS_ROTATABLE_BOND>
4

> <PUBCHEM_CACTVS_SUBSKEYS>
AAADceB7sAAAAAAAAAAAAAAAGABYAWAAAAA8QAAAAAAAAFgB8AAAHgAYAAAADwjBnwQzsJ/IEACqAydydACShCslAqAdmCE4ZNiIKPLAnZGEoQh4nwLIyacYiMCOQAAAAAAAAACAAAAAAAAAAAAAAAAAAA==

> <PUBCHEM_IUPAC_OPENEYE_NAME>
N-[5-[4-(3,3-dimethylazetidine-1-carbonyl)phenyl]-[1,2,4]triazolo[1,5-a]pyridin-2-yl]cyclopropanecarboxamide

> <PUBCHEM_IUPAC_CAS_NAME>
N-[5-[4-[(3,3-dimethyl-1-azetidinyl)-oxomethyl]phenyl]-[1,2,4]triazolo[1,5-a]pyridin-2-yl]cyclopropanecarboxamide

> <PUBCHEM_IUPAC_NAME_MARKUP>
<I>N</I>-[5-[4-(3,3-dimethylazetidine-1-carbonyl)phenyl]-[1,2,4]triazolo[1,5-a]pyridin-2-yl]cyclopropanecarboxamide

> <PUBCHEM_IUPAC_NAME>
N-[5-[4-(3,3-dimethylazetidine-1-carbonyl)phenyl]-[1,2,4]triazolo[1,5-a]pyridin-2-yl]cyclopropanecarboxamide

> <PUBCHEM_IUPAC_SYSTEMATIC_NAME>
N-[5-[4-(3,3-dimethylazetidin-1-yl)carbonylphenyl]-[1,2,4]triazolo[1,5-a]pyridin-2-yl]cyclopropanecarboxamide

> <PUBCHEM_IUPAC_TRADITIONAL_NAME>
N-[5-[4-(3,3-dimethylazetidine-1-carbonyl)phenyl]-[1,2,4]triazolo[1,5-a]pyridin-2-yl]cyclopropanecarboxamide

> <PUBCHEM_IUPAC_INCHI>
InChI=1S/C22H23N5O2/c1-22(2)12-26(13-22)20(29)16-10-6-14(7-11-16)17-4-3-5-18-23-21(25-27(17)18)24-19(28)15-8-9-15/h3-7,10-11,15H,8-9,12-13H2,1-2H3,(H,24,25,28)

> <PUBCHEM_IUPAC_INCHIKEY>
MPYACSQFXVMWNO-UHFFFAOYSA-N

> <PUBCHEM_XLOGP3_AA>
2.8

> <PUBCHEM_EXACT_MASS>
389.18517499

> <PUBCHEM_MOLECULAR_FORMULA>
C22H23N5O2

> <PUBCHEM_MOLECULAR_WEIGHT>
389.4

> <PUBCHEM_OPENEYE_CAN_SMILES>
CC1(CN(C1)C(=O)C2=CC=C(C=C2)C3=CC=CC4=NC(=NN43)NC(=O)C5CC5)C

> <PUBCHEM_OPENEYE_ISO_SMILES>
CC1(CN(C1)C(=O)C2=CC=C(C=C2)C3=CC=CC4=NC(=NN43)NC(=O)C5CC5)C

> <PUBCHEM_CACTVS_TPSA>
79.6

> <PUBCHEM_MONOISOTOPIC_WEIGHT>
389.18517499

> <PUBCHEM_TOTAL_CHARGE>
0

> <PUBCHEM_HEAVY_ATOM_COUNT>
29

> <PUBCHEM_ATOM_DEF_STEREO_COUNT>
0

> <PUBCHEM_ATOM_UDEF_STEREO_COUNT>
0

> <PUBCHEM_BOND_DEF_STEREO_COUNT>
0

> <PUBCHEM_BOND_UDEF_STEREO_COUNT>
0

> <PUBCHEM_ISOTOPIC_ATOM_COUNT>
0

> <PUBCHEM_COMPONENT_COUNT>
1

> <PUBCHEM_CACTVS_TAUTO_COUNT>
-1

> <PUBCHEM_COORDINATE_TYPE>
1
5
255

> <PUBCHEM_BONDANNOTATIONS>
18  19  8
18  20  8
19  23  8
20  24  8
22  23  8
22  24  8
25  27  8
26  28  8
27  29  8
28  29  8
5  25  8
5  26  8
5  6  8
6  21  8
7  21  8
7  26  8

$$$$
72694302
  -OEChem-11282412102D

 74 76  0     1  0  0  0  0  0999 V2000
    0.0000    6.4693    0.0000 F   0  0  0  0  0  0  0  0  0  0  0  0
    9.1171    2.3625    0.0000 O   0  0  0  0  0  0  0  0  0  0  0  0
    8.9305   11.5882    0.0000 O   0  0  0  0  0  0  0  0  0  0  0  0
    2.8683   12.0882    0.0000 O   0  0  0  0  0  0  0  0  0  0  0  0
    8.0645   13.0882    0.0000 O   0  0  0  0  0  0  0  0  0  0  0  0
    3.7343   10.5882    0.0000 O   0  0  0  0  0  0  0  0  0  0  0  0
    6.9282    6.4693    0.0000 N   0  0  0  0  0  0  0  0  0  0  0  0
    4.3301    5.9693    0.0000 N   0  0  0  0  0  0  0  0  0  0  0  0
    6.0622    5.9693    0.0000 N   0  0  0  0  0  0  0  0  0  0  0  0
    7.8744    7.7740    0.0000 N   0  0  0  0  0  0  0  0  0  0  0  0
   11.3847    0.9996    0.0000 N   0  0  0  0  0  0  0  0  0  0  0  0
    3.4641    6.4693    0.0000 C   0  0  1  0  0  0  0  0  0  0  0  0
    2.5981    5.9693    0.0000 C   0  0  0  0  0  0  0  0  0  0  0  0
    7.8744    6.1646    0.0000 C   0  0  0  0  0  0  0  0  0  0  0  0
    5.1962    6.4693    0.0000 C   0  0  0  0  0  0  0  0  0  0  0  0
    6.9282    7.4693    0.0000 C   0  0  0  0  0  0  0  0  0  0  0  0
    3.4641    7.4693    0.0000 C   0  0  0  0  0  0  0  0  0  0  0  0
    8.1851    5.2141    0.0000 C   0  0  0  0  0  0  0  0  0  0  0  0
    5.1962    7.4693    0.0000 C   0  0  0  0  0  0  0  0  0  0  0  0
    6.0622    7.9693    0.0000 C   0  0  0  0  0  0  0  0  0  0  0  0
    8.4580    6.9693    0.0000 C   0  0  0  0  0  0  0  0  0  0  0  0
    1.7320    6.4693    0.0000 C   0  0  0  0  0  0  0  0  0  0  0  0
    2.5981    4.9693    0.0000 C   0  0  0  0  0  0  0  0  0  0  0  0
    9.1636    5.0078    0.0000 C   0  0  0  0  0  0  0  0  0  0  0  0
    7.5172    4.4698    0.0000 C   0  0  0  0  0  0  0  0  0  0  0  0
    6.3324   12.0882    0.0000 C   0  0  0  0  0  0  0  0  0  0  0  0
    5.4664   11.5882    0.0000 C   0  0  0  0  0  0  0  0  0  0  0  0
    8.8064    3.3130    0.0000 C   0  0  0  0  0  0  0  0  0  0  0  0
   10.4062    1.2058    0.0000 C   0  0  1  0  0  0  0  0  0  0  0  0
    9.4742    4.0573    0.0000 C   0  0  0  0  0  0  0  0  0  0  0  0
    7.8279    3.5192    0.0000 C   0  0  0  0  0  0  0  0  0  0  0  0
   10.0956    2.1563    0.0000 C   0  0  0  0  0  0  0  0  0  0  0  0
    0.8660    5.9693    0.0000 C   0  0  0  0  0  0  0  0  0  0  0  0
    1.7320    4.4693    0.0000 C   0  0  0  0  0  0  0  0  0  0  0  0
    7.1984   11.5882    0.0000 C   0  0  0  0  0  0  0  0  0  0  0  0
    4.6004   12.0882    0.0000 C   0  0  0  0  0  0  0  0  0  0  0  0
    0.8660    4.9693    0.0000 C   0  0  0  0  0  0  0  0  0  0  0  0
    9.7384    0.4615    0.0000 C   0  0  0  0  0  0  0  0  0  0  0  0
    8.0645   12.0882    0.0000 C   0  0  0  0  0  0  0  0  0  0  0  0
    3.7343   11.5882    0.0000 C   0  0  0  0  0  0  0  0  0  0  0  0
    3.4641    5.8493    0.0000 H   0  0  0  0  0  0  0  0  0  0  0  0
    4.3301    5.3493    0.0000 H   0  0  0  0  0  0  0  0  0  0  0  0
    4.0841    7.4693    0.0000 H   0  0  0  0  0  0  0  0  0  0  0  0
    3.4641    8.0893    0.0000 H   0  0  0  0  0  0  0  0  0  0  0  0
    2.8441    7.4693    0.0000 H   0  0  0  0  0  0  0  0  0  0  0  0
    4.6592    7.7793    0.0000 H   0  0  0  0  0  0  0  0  0  0  0  0
    6.0622    8.5893    0.0000 H   0  0  0  0  0  0  0  0  0  0  0  0
    9.0780    6.9693    0.0000 H   0  0  0  0  0  0  0  0  0  0  0  0
    1.7320    7.0893    0.0000 H   0  0  0  0  0  0  0  0  0  0  0  0
    3.1350    4.6593    0.0000 H   0  0  0  0  0  0  0  0  0  0  0  0
    9.5776    5.4693    0.0000 H   0  0  0  0  0  0  0  0  0  0  0  0
    6.9106    4.5976    0.0000 H   0  0  0  0  0  0  0  0  0  0  0  0
    6.7310   12.5631    0.0000 H   0  0  0  0  0  0  0  0  0  0  0  0
    5.9339   12.5631    0.0000 H   0  0  0  0  0  0  0  0  0  0  0  0
    5.0679   11.1132    0.0000 H   0  0  0  0  0  0  0  0  0  0  0  0
    5.8649   11.1132    0.0000 H   0  0  0  0  0  0  0  0  0  0  0  0
   10.5989    0.6164    0.0000 H   0  0  0  0  0  0  0  0  0  0  0  0
   10.7094    2.2436    0.0000 H   0  0  0  0  0  0  0  0  0  0  0  0
   10.1161    2.7760    0.0000 H   0  0  0  0  0  0  0  0  0  0  0  0
   10.0809    3.9295    0.0000 H   0  0  0  0  0  0  0  0  0  0  0  0
    7.4138    3.0578    0.0000 H   0  0  0  0  0  0  0  0  0  0  0  0
    1.7320    3.8493    0.0000 H   0  0  0  0  0  0  0  0  0  0  0  0
    6.7999   11.1132    0.0000 H   0  0  0  0  0  0  0  0  0  0  0  0
    7.5970   11.1132    0.0000 H   0  0  0  0  0  0  0  0  0  0  0  0
    4.9989   12.5631    0.0000 H   0  0  0  0  0  0  0  0  0  0  0  0
    4.2018   12.5631    0.0000 H   0  0  0  0  0  0  0  0  0  0  0  0
    0.3291    4.6593    0.0000 H   0  0  0  0  0  0  0  0  0  0  0  0
    9.2769    0.8755    0.0000 H   0  0  0  0  0  0  0  0  0  0  0  0
    9.3243    0.0000    0.0000 H   0  0  0  0  0  0  0  0  0  0  0  0
   10.1999    0.0474    0.0000 H   0  0  0  0  0  0  0  0  0  0  0  0
   11.5774    0.4102    0.0000 H   0  0  0  0  0  0  0  0  0  0  0  0
   11.7988    1.4610    0.0000 H   0  0  0  0  0  0  0  0  0  0  0  0
    9.4674   11.8982    0.0000 H   0  0  0  0  0  0  0  0  0  0  0  0
    2.3314   11.7782    0.0000 H   0  0  0  0  0  0  0  0  0  0  0  0
  1 33  1  0  0  0  0
  2 28  1  0  0  0  0
  2 32  1  0  0  0  0
  3 39  1  0  0  0  0
  3 73  1  0  0  0  0
  4 40  1  0  0  0  0
  4 74  1  0  0  0  0
  5 39  2  0  0  0  0
  6 40  2  0  0  0  0
  7  9  1  0  0  0  0
  7 14  1  0  0  0  0
  7 16  1  0  0  0  0
 12  8  1  1  0  0  0
  8 15  1  0  0  0  0
  8 42  1  0  0  0  0
  9 15  2  0  0  0  0
 10 16  2  0  0  0  0
 10 21  1  0  0  0  0
 29 11  1  6  0  0  0
 11 71  1  0  0  0  0
 11 72  1  0  0  0  0
 12 13  1  0  0  0  0
 12 17  1  0  0  0  0
 12 41  1  0  0  0  0
 13 22  2  0  0  0  0
 13 23  1  0  0  0  0
 14 18  1  0  0  0  0
 14 21  2  0  0  0  0
 15 19  1  0  0  0  0
 16 20  1  0  0  0  0
 17 43  1  0  0  0  0
 17 44  1  0  0  0  0
 17 45  1  0  0  0  0
 18 24  2  0  0  0  0
 18 25  1  0  0  0  0
 19 20  2  0  0  0  0
 19 46  1  0  0  0  0
 20 47  1  0  0  0  0
 21 48  1  0  0  0  0
 22 33  1  0  0  0  0
 22 49  1  0  0  0  0
 23 34  2  0  0  0  0
 23 50  1  0  0  0  0
 24 30  1  0  0  0  0
 24 51  1  0  0  0  0
 25 31  2  0  0  0  0
 25 52  1  0  0  0  0
 26 27  1  0  0  0  0
 26 35  1  0  0  0  0
 26 53  1  0  0  0  0
 26 54  1  0  0  0  0
 27 36  1  0  0  0  0
 27 55  1  0  0  0  0
 27 56  1  0  0  0  0
 28 30  2  0  0  0  0
 28 31  1  0  0  0  0
 29 32  1  0  0  0  0
 29 38  1  0  0  0  0
 29 57  1  0  0  0  0
 30 60  1  0  0  0  0
 31 61  1  0  0  0  0
 32 58  1  0  0  0  0
 32 59  1  0  0  0  0
 33 37  2  0  0  0  0
 34 37  1  0  0  0  0
 34 62  1  0  0  0  0
 35 39  1  0  0  0  0
 35 63  1  0  0  0  0
 35 64  1  0  0  0  0
 36 40  1  0  0  0  0
 36 65  1  0  0  0  0
 36 66  1  0  0  0  0
 37 67  1  0  0  0  0
 38 68  1  0  0  0  0
 38 69  1  0  0  0  0
 38 70  1  0  0  0  0
M  END
> <PUBCHEM_COMPOUND_CID>
72694302

> <PUBCHEM_COMPOUND_CANONICALIZED>
1

> <PUBCHEM_CACTVS_COMPLEXITY>
645

> <PUBCHEM_CACTVS_HBOND_ACCEPTOR>
10

> <PUBCHEM_CACTVS_HBOND_DONOR>
4

> <PUBCHEM_CACTVS_ROTATABLE_BOND>
12

> <PUBCHEM_CACTVS_SUBSKEYS>
AAADcfB7uQAAAAAAAAAAAAAAAAAAAWAAAAA8YIAAAAAAAFgB9AAAHwAYCAAADCzhnw4/vp7IFgCqAzb3bACSjC8xMqAd2KE+fJiObvLEuZuX+Cj82BPI6CeY2IMOIAAAAAAAAABAAAAAAAAAAAAAAAAAAA==

> <PUBCHEM_IUPAC_OPENEYE_NAME>
adipic acid;3-[4-[(2R)-2-aminopropoxy]phenyl]-N-[(1R)-1-(3-fluorophenyl)ethyl]imidazo[1,2-b]pyridazin-6-amine

> <PUBCHEM_IUPAC_CAS_NAME>
3-[4-[(2R)-2-aminopropoxy]phenyl]-N-[(1R)-1-(3-fluorophenyl)ethyl]-6-imidazo[1,2-b]pyridazinamine;hexanedioic acid

> <PUBCHEM_IUPAC_NAME_MARKUP>
3-[4-[(2<I>R</I>)-2-aminopropoxy]phenyl]-<I>N</I>-[(1<I>R</I>)-1-(3-fluorophenyl)ethyl]imidazo[1,2-b]pyridazin-6-amine;hexanedioic acid

> <PUBCHEM_IUPAC_NAME>
3-[4-[(2R)-2-aminopropoxy]phenyl]-N-[(1R)-1-(3-fluorophenyl)ethyl]imidazo[1,2-b]pyridazin-6-amine;hexanedioic acid

> <PUBCHEM_IUPAC_SYSTEMATIC_NAME>
3-[4-[(2R)-2-azanylpropoxy]phenyl]-N-[(1R)-1-(3-fluorophenyl)ethyl]imidazo[1,2-b]pyridazin-6-amine;hexanedioic acid

> <PUBCHEM_IUPAC_TRADITIONAL_NAME>
adipic acid;[3-[4-[(2R)-2-aminopropoxy]phenyl]imidazo[1,2-b]pyridazin-6-yl]-[(1R)-1-(3-fluorophenyl)ethyl]amine

> <PUBCHEM_IUPAC_INCHI>
InChI=1S/C23H24FN5O.C6H10O4/c1-15(25)14-30-20-8-6-17(7-9-20)21-13-26-23-11-10-22(28-29(21)23)27-16(2)18-4-3-5-19(24)12-18;7-5(8)3-1-2-4-6(9)10/h3-13,15-16H,14,25H2,1-2H3,(H,27,28);1-4H2,(H,7,8)(H,9,10)/t15-,16-;/m1./s1

> <PUBCHEM_IUPAC_INCHIKEY>
DORJQZDOULKINH-QNBGGDODSA-N

> <PUBCHEM_EXACT_MASS>
551.25439736

> <PUBCHEM_MOLECULAR_FORMULA>
C29H34FN5O5

> <PUBCHEM_MOLECULAR_WEIGHT>
551.6

> <PUBCHEM_OPENEYE_CAN_SMILES>
CC(COC1=CC=C(C=C1)C2=CN=C3N2N=C(C=C3)NC(C)C4=CC(=CC=C4)F)N.C(CCC(=O)O)CC(=O)O

> <PUBCHEM_OPENEYE_ISO_SMILES>
C[C@H](COC1=CC=C(C=C1)C2=CN=C3N2N=C(C=C3)N[C@H](C)C4=CC(=CC=C4)F)N.C(CCC(=O)O)CC(=O)O

> <PUBCHEM_CACTVS_TPSA>
152

> <PUBCHEM_MONOISOTOPIC_WEIGHT>
551.25439736

> <PUBCHEM_TOTAL_CHARGE>
0

> <PUBCHEM_HEAVY_ATOM_COUNT>
40

> <PUBCHEM_ATOM_DEF_STEREO_COUNT>
2

> <PUBCHEM_ATOM_UDEF_STEREO_COUNT>
0

> <PUBCHEM_BOND_DEF_STEREO_COUNT>
0

> <PUBCHEM_BOND_UDEF_STEREO_COUNT>
0

> <PUBCHEM_ISOTOPIC_ATOM_COUNT>
0

> <PUBCHEM_COMPONENT_COUNT>
2

> <PUBCHEM_CACTVS_TAUTO_COUNT>
-1

> <PUBCHEM_COORDINATE_TYPE>
1
5
255

> <PUBCHEM_BONDANNOTATIONS>
10  16  8
10  21  8
29  11  6
13  22  8
13  23  8
14  21  8
15  19  8
16  20  8
18  24  8
18  25  8
19  20  8
22  33  8
23  34  8
24  30  8
25  31  8
28  30  8
28  31  8
33  37  8
34  37  8
7  14  8
7  16  8
7  9  8
12  8  5
9  15  8

$$$$
91754477
  -OEChem-11282412102D

 62 67  0     1  0  0  0  0  0999 V2000
    8.1868    4.9768    0.0000 O   0  0  0  0  0  0  0  0  0  0  0  0
    4.4487   -3.6502    0.0000 O   0  0  0  0  0  0  0  0  0  0  0  0
    2.0000   -4.4866    0.0000 O   0  0  0  0  0  0  0  0  0  0  0  0
    8.5440    1.6725    0.0000 N   0  0  0  0  0  0  0  0  0  0  0  0
    3.9487   -2.7841    0.0000 N   0  0  3  0  0  0  0  0  0  0  0  0
    4.9997    3.4773    0.0000 N   0  0  0  0  0  0  0  0  0  0  0  0
    3.2676    0.4773    0.0000 N   0  0  0  0  0  0  0  0  0  0  0  0
    2.4586   -0.1105    0.0000 N   0  0  0  0  0  0  0  0  0  0  0  0
    4.1337    1.9773    0.0000 N   0  0  0  0  0  0  0  0  0  0  0  0
    3.2676    3.4773    0.0000 N   0  0  0  0  0  0  0  0  0  0  0  0
    9.8332    4.4387    0.0000 C   0  0  0  0  0  0  0  0  0  0  0  0
   10.5775    5.1066    0.0000 C   0  0  0  0  0  0  0  0  0  0  0  0
   10.7837    4.1281    0.0000 C   0  0  0  0  0  0  0  0  0  0  0  0
    8.8547    4.2325    0.0000 C   0  0  0  0  0  0  0  0  0  0  0  0
    8.5440    3.2820    0.0000 C   0  0  0  0  0  0  0  0  0  0  0  0
    7.5978    2.9773    0.0000 C   0  0  0  0  0  0  0  0  0  0  0  0
    9.1276    2.4773    0.0000 C   0  0  0  0  0  0  0  0  0  0  0  0
    7.5978    1.9773    0.0000 C   0  0  0  0  0  0  0  0  0  0  0  0
    6.7318    3.4773    0.0000 C   0  0  0  0  0  0  0  0  0  0  0  0
    6.7318    1.4773    0.0000 C   0  0  0  0  0  0  0  0  0  0  0  0
    2.9705   -2.9920    0.0000 C   0  0  0  0  0  0  0  0  0  0  0  0
    2.8660   -3.9866    0.0000 C   0  0  1  0  0  0  0  0  0  0  0  0
    5.8657    2.9773    0.0000 C   0  0  0  0  0  0  0  0  0  0  0  0
    8.8547    0.7220    0.0000 C   0  0  0  0  0  0  0  0  0  0  0  0
    3.7796   -4.3933    0.0000 C   0  0  0  0  0  0  0  0  0  0  0  0
    4.3554   -1.8706    0.0000 C   0  0  0  0  0  0  0  0  0  0  0  0
    5.8657    1.9773    0.0000 C   0  0  0  0  0  0  0  0  0  0  0  0
    3.7676   -1.0616    0.0000 C   0  0  0  0  0  0  0  0  0  0  0  0
    2.7676   -1.0616    0.0000 C   0  0  0  0  0  0  0  0  0  0  0  0
    4.0767   -0.1105    0.0000 C   0  0  0  0  0  0  0  0  0  0  0  0
    4.1337    2.9773    0.0000 C   0  0  0  0  0  0  0  0  0  0  0  0
    3.2676    1.4773    0.0000 C   0  0  0  0  0  0  0  0  0  0  0  0
    2.1799   -1.8706    0.0000 C   0  0  0  0  0  0  0  0  0  0  0  0
    2.4016    1.9773    0.0000 C   0  0  0  0  0  0  0  0  0  0  0  0
    2.4016    2.9773    0.0000 C   0  0  0  0  0  0  0  0  0  0  0  0
    9.7996    3.8196    0.0000 H   0  0  0  0  0  0  0  0  0  0  0  0
   11.1527    5.3378    0.0000 H   0  0  0  0  0  0  0  0  0  0  0  0
   10.2498    5.6329    0.0000 H   0  0  0  0  0  0  0  0  0  0  0  0
   10.6963    3.5142    0.0000 H   0  0  0  0  0  0  0  0  0  0  0  0
   11.4033    4.1486    0.0000 H   0  0  0  0  0  0  0  0  0  0  0  0
    9.7476    2.4773    0.0000 H   0  0  0  0  0  0  0  0  0  0  0  0
    6.7318    4.0973    0.0000 H   0  0  0  0  0  0  0  0  0  0  0  0
    2.9058   -2.3754    0.0000 H   0  0  0  0  0  0  0  0  0  0  0  0
    2.3506   -2.9920    0.0000 H   0  0  0  0  0  0  0  0  0  0  0  0
    2.3460   -3.6489    0.0000 H   0  0  0  0  0  0  0  0  0  0  0  0
    6.7318    0.8573    0.0000 H   0  0  0  0  0  0  0  0  0  0  0  0
    8.2653    0.5294    0.0000 H   0  0  0  0  0  0  0  0  0  0  0  0
    9.0473    0.1327    0.0000 H   0  0  0  0  0  0  0  0  0  0  0  0
    9.4440    0.9146    0.0000 H   0  0  0  0  0  0  0  0  0  0  0  0
    3.4696   -4.9302    0.0000 H   0  0  0  0  0  0  0  0  0  0  0  0
    4.2812   -4.7577    0.0000 H   0  0  0  0  0  0  0  0  0  0  0  0
    4.8694   -2.2173    0.0000 H   0  0  0  0  0  0  0  0  0  0  0  0
    4.7861   -1.4246    0.0000 H   0  0  0  0  0  0  0  0  0  0  0  0
    5.3288    1.6673    0.0000 H   0  0  0  0  0  0  0  0  0  0  0  0
    4.9997    4.0973    0.0000 H   0  0  0  0  0  0  0  0  0  0  0  0
    4.6663    0.0811    0.0000 H   0  0  0  0  0  0  0  0  0  0  0  0
    2.0000   -5.1066    0.0000 H   0  0  0  0  0  0  0  0  0  0  0  0
    1.6783   -1.5062    0.0000 H   0  0  0  0  0  0  0  0  0  0  0  0
    1.8154   -2.3722    0.0000 H   0  0  0  0  0  0  0  0  0  0  0  0
    2.6815   -2.2350    0.0000 H   0  0  0  0  0  0  0  0  0  0  0  0
    1.8647    1.6673    0.0000 H   0  0  0  0  0  0  0  0  0  0  0  0
    1.8647    3.2873    0.0000 H   0  0  0  0  0  0  0  0  0  0  0  0
  1 14  2  0  0  0  0
  2  5  1  0  0  0  0
  2 25  1  0  0  0  0
 22  3  1  1  0  0  0
  3 57  1  0  0  0  0
  4 17  1  0  0  0  0
  4 18  1  0  0  0  0
  4 24  1  0  0  0  0
  5 21  1  0  0  0  0
  5 26  1  0  0  0  0
  6 23  1  0  0  0  0
  6 31  1  0  0  0  0
  6 55  1  0  0  0  0
  7  8  1  0  0  0  0
  7 30  1  0  0  0  0
  7 32  1  0  0  0  0
  8 29  2  0  0  0  0
  9 31  1  0  0  0  0
  9 32  2  0  0  0  0
 10 31  2  0  0  0  0
 10 35  1  0  0  0  0
 11 12  1  0  0  0  0
 11 13  1  0  0  0  0
 11 14  1  0  0  0  0
 11 36  1  0  0  0  0
 12 13  1  0  0  0  0
 12 37  1  0  0  0  0
 12 38  1  0  0  0  0
 13 39  1  0  0  0  0
 13 40  1  0  0  0  0
 14 15  1  0  0  0  0
 15 16  1  0  0  0  0
 15 17  2  0  0  0  0
 16 18  2  0  0  0  0
 16 19  1  0  0  0  0
 17 41  1  0  0  0  0
 18 20  1  0  0  0  0
 19 23  2  0  0  0  0
 19 42  1  0  0  0  0
 20 27  2  0  0  0  0
 20 46  1  0  0  0  0
 21 22  1  0  0  0  0
 21 43  1  0  0  0  0
 21 44  1  0  0  0  0
 22 25  1  0  0  0  0
 22 45  1  0  0  0  0
 23 27  1  0  0  0  0
 24 47  1  0  0  0  0
 24 48  1  0  0  0  0
 24 49  1  0  0  0  0
 25 50  1  0  0  0  0
 25 51  1  0  0  0  0
 26 28  1  0  0  0  0
 26 52  1  0  0  0  0
 26 53  1  0  0  0  0
 27 54  1  0  0  0  0
 28 29  1  0  0  0  0
 28 30  2  0  0  0  0
 29 33  1  0  0  0  0
 30 56  1  0  0  0  0
 32 34  1  0  0  0  0
 33 58  1  0  0  0  0
 33 59  1  0  0  0  0
 33 60  1  0  0  0  0
 34 35  2  0  0  0  0
 34 61  1  0  0  0  0
 35 62  1  0  0  0  0
M  END
> <PUBCHEM_COMPOUND_CID>
91754477

> <PUBCHEM_COMPOUND_CANONICALIZED>
1

> <PUBCHEM_CACTVS_COMPLEXITY>
769

> <PUBCHEM_CACTVS_HBOND_ACCEPTOR>
8

> <PUBCHEM_CACTVS_HBOND_DONOR>
2

> <PUBCHEM_CACTVS_ROTATABLE_BOND>
7

> <PUBCHEM_CACTVS_SUBSKEYS>
AAADceB7sAAAAAAAAAAAAAAAGAAAAWLFgAA8QAAAAAAAAFgB/gAAHgAcCAAADRzhngY/8PfcEgCqA7Z3ZACShCk1gqA92CE4ZNiLOPrA3dGEpYhqmALZyeccicCegACAQAACAAAAAQCAAAQAAAAAAAAAAA==

> <PUBCHEM_IUPAC_OPENEYE_NAME>
cyclopropyl-[5-[[4-[4-[[(4S)-4-hydroxyisoxazolidin-2-yl]methyl]-3-methyl-pyrazol-1-yl]pyrimidin-2-yl]amino]-1-methyl-indol-3-yl]methanone

> <PUBCHEM_IUPAC_CAS_NAME>
cyclopropyl-[5-[[4-[4-[[(4S)-4-hydroxy-2-isoxazolidinyl]methyl]-3-methyl-1-pyrazolyl]-2-pyrimidinyl]amino]-1-methyl-3-indolyl]methanone

> <PUBCHEM_IUPAC_NAME_MARKUP>
cyclopropyl-[5-[[4-[4-[[(4<I>S</I>)-4-hydroxy-1,2-oxazolidin-2-yl]methyl]-3-methylpyrazol-1-yl]pyrimidin-2-yl]amino]-1-methylindol-3-yl]methanone

> <PUBCHEM_IUPAC_NAME>
cyclopropyl-[5-[[4-[4-[[(4S)-4-hydroxy-1,2-oxazolidin-2-yl]methyl]-3-methylpyrazol-1-yl]pyrimidin-2-yl]amino]-1-methylindol-3-yl]methanone

> <PUBCHEM_IUPAC_SYSTEMATIC_NAME>
cyclopropyl-[1-methyl-5-[[4-[3-methyl-4-[[(4S)-4-oxidanyl-1,2-oxazolidin-2-yl]methyl]pyrazol-1-yl]pyrimidin-2-yl]amino]indol-3-yl]methanone

> <PUBCHEM_IUPAC_TRADITIONAL_NAME>
cyclopropyl-[5-[[4-[4-[[(4S)-4-hydroxyisoxazolidin-2-yl]methyl]-3-methyl-pyrazol-1-yl]pyrimidin-2-yl]amino]-1-methyl-indol-3-yl]methanone

> <PUBCHEM_IUPAC_INCHI>
InChI=1S/C25H27N7O3/c1-15-17(10-31-12-19(33)14-35-31)11-32(29-15)23-7-8-26-25(28-23)27-18-5-6-22-20(9-18)21(13-30(22)2)24(34)16-3-4-16/h5-9,11,13,16,19,33H,3-4,10,12,14H2,1-2H3,(H,26,27,28)/t19-/m0/s1

> <PUBCHEM_IUPAC_INCHIKEY>
YCZUBLQESBVOSH-IBGZPJMESA-N

> <PUBCHEM_XLOGP3_AA>
2

> <PUBCHEM_EXACT_MASS>
473.21753775

> <PUBCHEM_MOLECULAR_FORMULA>
C25H27N7O3

> <PUBCHEM_MOLECULAR_WEIGHT>
473.5

> <PUBCHEM_OPENEYE_CAN_SMILES>
CC1=NN(C=C1CN2CC(CO2)O)C3=NC(=NC=C3)NC4=CC5=C(C=C4)N(C=C5C(=O)C6CC6)C

> <PUBCHEM_OPENEYE_ISO_SMILES>
CC1=NN(C=C1CN2C[C@@H](CO2)O)C3=NC(=NC=C3)NC4=CC5=C(C=C4)N(C=C5C(=O)C6CC6)C

> <PUBCHEM_CACTVS_TPSA>
110

> <PUBCHEM_MONOISOTOPIC_WEIGHT>
473.21753775

> <PUBCHEM_TOTAL_CHARGE>
0

> <PUBCHEM_HEAVY_ATOM_COUNT>
35

> <PUBCHEM_ATOM_DEF_STEREO_COUNT>
1

> <PUBCHEM_ATOM_UDEF_STEREO_COUNT>
0

> <PUBCHEM_BOND_DEF_STEREO_COUNT>
0

> <PUBCHEM_BOND_UDEF_STEREO_COUNT>
0

> <PUBCHEM_ISOTOPIC_ATOM_COUNT>
0

> <PUBCHEM_COMPONENT_COUNT>
1

> <PUBCHEM_CACTVS_TAUTO_COUNT>
-1

> <PUBCHEM_COORDINATE_TYPE>
1
5
255

> <PUBCHEM_BONDANNOTATIONS>
10  31  8
10  35  8
15  16  8
15  17  8
16  18  8
16  19  8
18  20  8
19  23  8
20  27  8
23  27  8
28  29  8
28  30  8
22  3  5
32  34  8
34  35  8
4  17  8
4  18  8
7  30  8
7  8  8
8  29  8
9  31  8
9  32  8

$$$$
137796909
  -OEChem-11282412102D

 89 93  0     1  0  0  0  0  0999 V2000
    8.4114    3.9397    0.0000 S   0  0  0  0  0  0  0  0  0  0  0  0
    4.8671    4.1350    0.0000 F   0  0  0  0  0  0  0  0  0  0  0  0
    1.4030   14.1350    0.0000 F   0  0  0  0  0  0  0  0  0  0  0  0
    4.0010    8.6350    0.0000 O   0  0  0  0  0  0  0  0  0  0  0  0
    3.1350   10.1350    0.0000 O   0  0  0  0  0  0  0  0  0  0  0  0
    6.5991    5.1350    0.0000 O   0  0  0  0  0  0  0  0  0  0  0  0
   15.9950    1.4030    0.0000 O   0  0  0  0  0  0  0  0  0  0  0  0
    8.9490   16.4442    0.0000 O   0  0  0  0  0  0  0  0  0  0  0  0
   10.6810   17.4442    0.0000 O   0  0  0  0  0  0  0  0  0  0  0  0
    6.3509   17.9442    0.0000 O   0  0  0  0  0  0  0  0  0  0  0  0
    9.8150   18.9442    0.0000 O   0  0  0  0  0  0  0  0  0  0  0  0
    7.2169   16.4442    0.0000 O   0  0  0  0  0  0  0  0  0  0  0  0
    3.1350    7.1350    0.0000 N   0  0  0  0  0  0  0  0  0  0  0  0
    1.4030   10.1350    0.0000 N   0  0  0  0  0  0  0  0  0  0  0  0
    6.5991    2.1350    0.0000 N   0  0  0  0  0  0  0  0  0  0  0  0
   10.4950    4.0010    0.0000 N   0  0  0  0  0  0  0  0  0  0  0  0
   13.4950    2.2690    0.0000 N   0  0  0  0  0  0  0  0  0  0  0  0
    2.2690    8.6350    0.0000 C   0  0  0  0  0  0  0  0  0  0  0  0
    1.2690    8.6350    0.0000 C   0  0  0  0  0  0  0  0  0  0  0  0
    1.7690    7.7690    0.0000 C   0  0  0  0  0  0  0  0  0  0  0  0
    3.1350    8.1350    0.0000 C   0  0  0  0  0  0  0  0  0  0  0  0
    2.2690    9.6350    0.0000 C   0  0  0  0  0  0  0  0  0  0  0  0
    4.0010    6.6350    0.0000 C   0  0  0  0  0  0  0  0  0  0  0  0
    1.4030   11.1350    0.0000 C   0  0  0  0  0  0  0  0  0  0  0  0
    4.0010    5.6350    0.0000 C   0  0  0  0  0  0  0  0  0  0  0  0
    4.8671    7.1350    0.0000 C   0  0  0  0  0  0  0  0  0  0  0  0
    0.5369   11.6350    0.0000 C   0  0  0  0  0  0  0  0  0  0  0  0
    2.2690   11.6350    0.0000 C   0  0  0  0  0  0  0  0  0  0  0  0
    4.8671    5.1350    0.0000 C   0  0  0  0  0  0  0  0  0  0  0  0
    5.7331    6.6350    0.0000 C   0  0  0  0  0  0  0  0  0  0  0  0
    0.5369   12.6350    0.0000 C   0  0  0  0  0  0  0  0  0  0  0  0
    2.2690   12.6350    0.0000 C   0  0  0  0  0  0  0  0  0  0  0  0
    5.7331    5.6350    0.0000 C   0  0  0  0  0  0  0  0  0  0  0  0
    1.4030   13.1350    0.0000 C   0  0  0  0  0  0  0  0  0  0  0  0
    6.5991    4.1350    0.0000 C   0  0  0  0  0  0  0  0  0  0  0  0
    7.4651    3.6350    0.0000 C   0  0  0  0  0  0  0  0  0  0  0  0
    5.7331    3.6350    0.0000 C   0  0  0  0  0  0  0  0  0  0  0  0
    7.4651    2.6350    0.0000 C   0  0  0  0  0  0  0  0  0  0  0  0
    8.9950    3.1350    0.0000 C   0  0  0  0  0  0  0  0  0  0  0  0
    8.4114    2.3303    0.0000 C   0  0  0  0  0  0  0  0  0  0  0  0
    5.7331    2.6350    0.0000 C   0  0  0  0  0  0  0  0  0  0  0  0
    9.9950    3.1350    0.0000 C   0  0  0  0  0  0  0  0  0  0  0  0
   11.9950    3.1350    0.0000 C   0  0  0  0  0  0  0  0  0  0  0  0
   10.4950    2.2690    0.0000 C   0  0  0  0  0  0  0  0  0  0  0  0
   12.9950    3.1350    0.0000 C   0  0  0  0  0  0  0  0  0  0  0  0
   11.4950    2.2690    0.0000 C   0  0  0  0  0  0  0  0  0  0  0  0
   11.4950    4.0010    0.0000 C   0  0  0  0  0  0  0  0  0  0  0  0
   14.4950    2.2690    0.0000 C   0  0  0  0  0  0  0  0  0  0  0  0
   14.9950    1.4030    0.0000 C   0  0  0  0  0  0  0  0  0  0  0  0
   16.4950    0.5369    0.0000 C   0  0  0  0  0  0  0  0  0  0  0  0
    8.9490   17.4442    0.0000 C   0  0  1  0  0  0  0  0  0  0  0  0
    8.0829   17.9442    0.0000 C   0  0  0  0  0  0  0  0  0  0  0  0
    9.8150   17.9442    0.0000 C   0  0  0  0  0  0  0  0  0  0  0  0
    7.2169   17.4442    0.0000 C   0  0  0  0  0  0  0  0  0  0  0  0
    1.1613    9.2456    0.0000 H   0  0  0  0  0  0  0  0  0  0  0  0
    0.6864    8.4230    0.0000 H   0  0  0  0  0  0  0  0  0  0  0  0
    1.2940    7.3705    0.0000 H   0  0  0  0  0  0  0  0  0  0  0  0
    2.2439    7.3705    0.0000 H   0  0  0  0  0  0  0  0  0  0  0  0
    2.5981    6.8250    0.0000 H   0  0  0  0  0  0  0  0  0  0  0  0
    0.8660    9.8250    0.0000 H   0  0  0  0  0  0  0  0  0  0  0  0
    3.4641    5.3250    0.0000 H   0  0  0  0  0  0  0  0  0  0  0  0
    4.8671    7.7550    0.0000 H   0  0  0  0  0  0  0  0  0  0  0  0
    0.0000   11.3250    0.0000 H   0  0  0  0  0  0  0  0  0  0  0  0
    2.8059   11.3250    0.0000 H   0  0  0  0  0  0  0  0  0  0  0  0
    6.2700    6.9450    0.0000 H   0  0  0  0  0  0  0  0  0  0  0  0
    0.0000   12.9450    0.0000 H   0  0  0  0  0  0  0  0  0  0  0  0
    2.8059   12.9450    0.0000 H   0  0  0  0  0  0  0  0  0  0  0  0
    5.1962    3.9450    0.0000 H   0  0  0  0  0  0  0  0  0  0  0  0
    8.6040    1.7410    0.0000 H   0  0  0  0  0  0  0  0  0  0  0  0
    5.1962    2.3250    0.0000 H   0  0  0  0  0  0  0  0  0  0  0  0
   13.5776    3.3471    0.0000 H   0  0  0  0  0  0  0  0  0  0  0  0
   12.8873    3.7456    0.0000 H   0  0  0  0  0  0  0  0  0  0  0  0
   10.1850    1.7320    0.0000 H   0  0  0  0  0  0  0  0  0  0  0  0
   11.8050    1.7320    0.0000 H   0  0  0  0  0  0  0  0  0  0  0  0
   11.8050    4.5380    0.0000 H   0  0  0  0  0  0  0  0  0  0  0  0
   13.1850    1.7320    0.0000 H   0  0  0  0  0  0  0  0  0  0  0  0
   15.0776    2.4810    0.0000 H   0  0  0  0  0  0  0  0  0  0  0  0
   14.3873    2.8796    0.0000 H   0  0  0  0  0  0  0  0  0  0  0  0
   14.4124    1.1909    0.0000 H   0  0  0  0  0  0  0  0  0  0  0  0
   15.1026    0.7924    0.0000 H   0  0  0  0  0  0  0  0  0  0  0  0
   15.9580    0.2269    0.0000 H   0  0  0  0  0  0  0  0  0  0  0  0
   16.8050    0.0000    0.0000 H   0  0  0  0  0  0  0  0  0  0  0  0
   17.0319    0.8469    0.0000 H   0  0  0  0  0  0  0  0  0  0  0  0
    9.4859   17.1342    0.0000 H   0  0  0  0  0  0  0  0  0  0  0  0
    8.4815   18.4191    0.0000 H   0  0  0  0  0  0  0  0  0  0  0  0
    7.6844   18.4191    0.0000 H   0  0  0  0  0  0  0  0  0  0  0  0
    8.4120   16.1342    0.0000 H   0  0  0  0  0  0  0  0  0  0  0  0
   11.2180   17.7542    0.0000 H   0  0  0  0  0  0  0  0  0  0  0  0
    5.8140   17.6342    0.0000 H   0  0  0  0  0  0  0  0  0  0  0  0
  1 36  1  0  0  0  0
  1 39  1  0  0  0  0
  2 29  1  0  0  0  0
  3 34  1  0  0  0  0
  4 21  2  0  0  0  0
  5 22  2  0  0  0  0
  6 33  1  0  0  0  0
  6 35  1  0  0  0  0
  7 49  1  0  0  0  0
  7 50  1  0  0  0  0
 51  8  1  1  0  0  0
  8 87  1  0  0  0  0
  9 53  1  0  0  0  0
  9 88  1  0  0  0  0
 10 54  1  0  0  0  0
 10 89  1  0  0  0  0
 11 53  2  0  0  0  0
 12 54  2  0  0  0  0
 13 21  1  0  0  0  0
 13 23  1  0  0  0  0
 13 59  1  0  0  0  0
 14 22  1  0  0  0  0
 14 24  1  0  0  0  0
 14 60  1  0  0  0  0
 15 38  2  0  0  0  0
 15 41  1  0  0  0  0
 16 42  2  0  0  0  0
 16 47  1  0  0  0  0
 17 45  1  0  0  0  0
 17 48  1  0  0  0  0
 17 76  1  0  0  0  0
 18 19  1  0  0  0  0
 18 20  1  0  0  0  0
 18 21  1  0  0  0  0
 18 22  1  0  0  0  0
 19 20  1  0  0  0  0
 19 55  1  0  0  0  0
 19 56  1  0  0  0  0
 20 57  1  0  0  0  0
 20 58  1  0  0  0  0
 23 25  2  0  0  0  0
 23 26  1  0  0  0  0
 24 27  2  0  0  0  0
 24 28  1  0  0  0  0
 25 29  1  0  0  0  0
 25 61  1  0  0  0  0
 26 30  2  0  0  0  0
 26 62  1  0  0  0  0
 27 31  1  0  0  0  0
 27 63  1  0  0  0  0
 28 32  2  0  0  0  0
 28 64  1  0  0  0  0
 29 33  2  0  0  0  0
 30 33  1  0  0  0  0
 30 65  1  0  0  0  0
 31 34  2  0  0  0  0
 31 66  1  0  0  0  0
 32 34  1  0  0  0  0
 32 67  1  0  0  0  0
 35 36  2  0  0  0  0
 35 37  1  0  0  0  0
 36 38  1  0  0  0  0
 37 41  2  0  0  0  0
 37 68  1  0  0  0  0
 38 40  1  0  0  0  0
 39 40  2  0  0  0  0
 39 42  1  0  0  0  0
 40 69  1  0  0  0  0
 41 70  1  0  0  0  0
 42 44  1  0  0  0  0
 43 45  1  0  0  0  0
 43 46  1  0  0  0  0
 43 47  2  0  0  0  0
 44 46  2  0  0  0  0
 44 73  1  0  0  0  0
 45 71  1  0  0  0  0
 45 72  1  0  0  0  0
 46 74  1  0  0  0  0
 47 75  1  0  0  0  0
 48 49  1  0  0  0  0
 48 77  1  0  0  0  0
 48 78  1  0  0  0  0
 49 79  1  0  0  0  0
 49 80  1  0  0  0  0
 50 81  1  0  0  0  0
 50 82  1  0  0  0  0
 50 83  1  0  0  0  0
 51 52  1  0  0  0  0
 51 53  1  0  0  0  0
 51 84  1  0  0  0  0
 52 54  1  0  0  0  0
 52 85  1  0  0  0  0
 52 86  1  0  0  0  0
M  END
> <PUBCHEM_COMPOUND_CID>
137796909

> <PUBCHEM_COMPOUND_CANONICALIZED>
1

> <PUBCHEM_CACTVS_COMPLEXITY>
1130

> <PUBCHEM_CACTVS_HBOND_ACCEPTOR>
15

> <PUBCHEM_CACTVS_HBOND_DONOR>
6

> <PUBCHEM_CACTVS_ROTATABLE_BOND>
15

> <PUBCHEM_CACTVS_SUBSKEYS>
AAADcfB/vYBAAAAAAAAAAAAAGAAAASAAAAA8eIEAAAAAAFgB/gAAHwQQCAAADhzh3g4+z7LIFgisAzX3XAKDqKAxKjBI2L9+bJgPNv7s8ZuHeCzn9Bn56AfzwOAMAEAAAAAAAAAAgAAAAAAAAAAAAAAAAA==

> <PUBCHEM_IUPAC_OPENEYE_NAME>
N1'-[3-fluoro-4-[2-[5-[(2-methoxyethylamino)methyl]-2-pyridyl]thieno[3,2-b]pyridin-7-yl]oxy-phenyl]-N1-(4-fluorophenyl)cyclopropane-1,1-dicarboxamide;(2S)-2-hydroxybutanedioic acid

> <PUBCHEM_IUPAC_CAS_NAME>
N1'-[3-fluoro-4-[[2-[5-[(2-methoxyethylamino)methyl]-2-pyridinyl]-7-thieno[3,2-b]pyridinyl]oxy]phenyl]-N1-(4-fluorophenyl)cyclopropane-1,1-dicarboxamide;(2S)-2-hydroxybutanedioic acid

> <PUBCHEM_IUPAC_NAME_MARKUP>
1-<I>N</I>&apos;-[3-fluoro-4-[2-[5-[(2-methoxyethylamino)methyl]pyridin-2-yl]thieno[3,2-b]pyridin-7-yl]oxyphenyl]-1-<I>N</I>-(4-fluorophenyl)cyclopropane-1,1-dicarboxamide;(2<I>S</I>)-2-hydroxybutanedioic acid

> <PUBCHEM_IUPAC_NAME>
1-N'-[3-fluoro-4-[2-[5-[(2-methoxyethylamino)methyl]pyridin-2-yl]thieno[3,2-b]pyridin-7-yl]oxyphenyl]-1-N-(4-fluorophenyl)cyclopropane-1,1-dicarboxamide;(2S)-2-hydroxybutanedioic acid

> <PUBCHEM_IUPAC_SYSTEMATIC_NAME>
N1'-[3-fluoranyl-4-[2-[5-[(2-methoxyethylamino)methyl]pyridin-2-yl]thieno[3,2-b]pyridin-7-yl]oxy-phenyl]-N1-(4-fluorophenyl)cyclopropane-1,1-dicarboxamide;(2S)-2-oxidanylbutanedioic acid

> <PUBCHEM_IUPAC_TRADITIONAL_NAME>
N'-[3-fluoro-4-[2-[5-[(2-methoxyethylamino)methyl]-2-pyridyl]thieno[3,2-b]pyridin-7-yl]oxy-phenyl]-N-(4-fluorophenyl)cyclopropane-1,1-dicarboxamide;(2S)-2-hydroxysuccinic acid

> <PUBCHEM_IUPAC_INCHI>
InChI=1S/C33H29F2N5O4S.C4H6O5/c1-43-15-14-36-18-20-2-8-25(38-19-20)29-17-26-30(45-29)28(10-13-37-26)44-27-9-7-23(16-24(27)35)40-32(42)33(11-12-33)31(41)39-22-5-3-21(34)4-6-22;5-2(4(8)9)1-3(6)7/h2-10,13,16-17,19,36H,11-12,14-15,18H2,1H3,(H,39,41)(H,40,42);2,5H,1H2,(H,6,7)(H,8,9)/t;2-/m.0/s1

> <PUBCHEM_IUPAC_INCHIKEY>
GDLGZWLGDROYHH-WNQIDUERSA-N

> <PUBCHEM_EXACT_MASS>
763.21235521

> <PUBCHEM_MOLECULAR_FORMULA>
C37H35F2N5O9S

> <PUBCHEM_MOLECULAR_WEIGHT>
763.8

> <PUBCHEM_OPENEYE_CAN_SMILES>
COCCNCC1=CN=C(C=C1)C2=CC3=NC=CC(=C3S2)OC4=C(C=C(C=C4)NC(=O)C5(CC5)C(=O)NC6=CC=C(C=C6)F)F.C(C(C(=O)O)O)C(=O)O

> <PUBCHEM_OPENEYE_ISO_SMILES>
COCCNCC1=CN=C(C=C1)C2=CC3=NC=CC(=C3S2)OC4=C(C=C(C=C4)NC(=O)C5(CC5)C(=O)NC6=CC=C(C=C6)F)F.C([C@@H](C(=O)O)O)C(=O)O

> <PUBCHEM_CACTVS_TPSA>
238

> <PUBCHEM_MONOISOTOPIC_WEIGHT>
763.21235521

> <PUBCHEM_TOTAL_CHARGE>
0

> <PUBCHEM_HEAVY_ATOM_COUNT>
54

> <PUBCHEM_ATOM_DEF_STEREO_COUNT>
1

> <PUBCHEM_ATOM_UDEF_STEREO_COUNT>
0

> <PUBCHEM_BOND_DEF_STEREO_COUNT>
0

> <PUBCHEM_BOND_UDEF_STEREO_COUNT>
0

> <PUBCHEM_ISOTOPIC_ATOM_COUNT>
0

> <PUBCHEM_COMPONENT_COUNT>
2

> <PUBCHEM_CACTVS_TAUTO_COUNT>
-1

> <PUBCHEM_COORDINATE_TYPE>
1
5
255

> <PUBCHEM_BONDANNOTATIONS>
1  36  8
1  39  8
15  38  8
15  41  8
16  42  8
16  47  8
23  25  8
23  26  8
24  27  8
24  28  8
25  29  8
26  30  8
27  31  8
28  32  8
29  33  8
30  33  8
31  34  8
32  34  8
35  36  8
35  37  8
36  38  8
37  41  8
38  40  8
39  40  8
42  44  8
43  46  8
43  47  8
44  46  8
51  8  5

$$$$
162368359
  -OEChem-11282412102D

 83 86  0     1  0  0  0  0  0999 V2000
   13.8351    6.6708    0.0000 S   0  0  0  0  0  0  0  0  0  0  0  0
    7.7506    6.8782    0.0000 O   0  0  0  0  0  0  0  0  0  0  0  0
    3.7900    8.6987    0.0000 O   0  0  0  0  0  0  0  0  0  0  0  0
   14.7012    7.1708    0.0000 O   0  0  0  0  0  0  0  0  0  0  0  0
   13.3351    7.5368    0.0000 O   0  0  0  0  0  0  0  0  0  0  0  0
   14.3351    5.8048    0.0000 O   0  0  0  0  0  0  0  0  0  0  0  0
    3.2152    2.5428    0.0000 N   0  0  0  0  0  0  0  0  0  0  0  0
    4.5044    5.3090    0.0000 N   0  0  0  0  0  0  0  0  0  0  0  0
    4.1472    7.0039    0.0000 N   0  0  0  0  0  0  0  0  0  0  0  0
    5.7935    6.4658    0.0000 N   0  0  0  0  0  0  0  0  0  0  0  0
    7.0362   10.2679    0.0000 N   0  0  3  0  0  0  0  0  0  0  0  0
    9.3039   11.6308    0.0000 N   0  0  0  0  0  0  0  0  0  0  0  0
    5.0792    9.8554    0.0000 N   0  0  0  0  0  0  0  0  0  0  0  0
    3.5259    1.5923    0.0000 C   0  0  0  0  0  0  0  0  0  0  0  0
    3.3196    0.6138    0.0000 C   0  0  0  0  0  0  0  0  0  0  0  0
    4.2702    0.9245    0.0000 C   0  0  0  0  0  0  0  0  0  0  0  0
    2.2690    2.8476    0.0000 C   0  0  0  0  0  0  0  0  0  0  0  0
    3.7988    3.3476    0.0000 C   0  0  0  0  0  0  0  0  0  0  0  0
    2.2690    3.8476    0.0000 C   0  0  0  0  0  0  0  0  0  0  0  0
    3.2152    4.1523    0.0000 C   0  0  0  0  0  0  0  0  0  0  0  0
    1.4030    2.3476    0.0000 C   0  0  0  0  0  0  0  0  0  0  0  0
    1.4030    4.3476    0.0000 C   0  0  0  0  0  0  0  0  0  0  0  0
    3.5259    5.1028    0.0000 C   0  0  0  0  0  0  0  0  0  0  0  0
    0.5369    2.8476    0.0000 C   0  0  0  0  0  0  0  0  0  0  0  0
    0.5369    3.8476    0.0000 C   0  0  0  0  0  0  0  0  0  0  0  0
    2.8580    5.8471    0.0000 C   0  0  0  0  0  0  0  0  0  0  0  0
    4.8150    6.2596    0.0000 C   0  0  0  0  0  0  0  0  0  0  0  0
    3.1687    6.7976    0.0000 C   0  0  0  0  0  0  0  0  0  0  0  0
    6.1042    7.4163    0.0000 C   0  0  0  0  0  0  0  0  0  0  0  0
    6.7255    9.3174    0.0000 C   0  0  0  0  0  0  0  0  0  0  0  0
    8.0147   10.4741    0.0000 C   0  0  0  0  0  0  0  0  0  0  0  0
    7.0827    7.6225    0.0000 C   0  0  0  0  0  0  0  0  0  0  0  0
    5.4364    8.1606    0.0000 C   0  0  0  0  0  0  0  0  0  0  0  0
    5.7470    9.1111    0.0000 C   0  0  0  0  0  0  0  0  0  0  0  0
    7.3934    8.5730    0.0000 C   0  0  0  0  0  0  0  0  0  0  0  0
    8.3254   11.4246    0.0000 C   0  0  0  0  0  0  0  0  0  0  0  0
    6.3684   11.0122    0.0000 C   0  0  0  0  0  0  0  0  0  0  0  0
    9.6145   12.5813    0.0000 C   0  0  0  0  0  0  0  0  0  0  0  0
    9.9717   10.8865    0.0000 C   0  0  0  0  0  0  0  0  0  0  0  0
    4.1007    9.6492    0.0000 C   0  0  0  0  0  0  0  0  0  0  0  0
    8.7291    7.0844    0.0000 C   0  0  0  0  0  0  0  0  0  0  0  0
    3.4328   10.3935    0.0000 C   0  0  0  0  0  0  0  0  0  0  0  0
    2.4543   10.1873    0.0000 C   0  0  0  0  0  0  0  0  0  0  0  0
   12.9691    6.1708    0.0000 C   0  0  0  0  0  0  0  0  0  0  0  0
    2.9068    1.5588    0.0000 H   0  0  0  0  0  0  0  0  0  0  0  0
    2.7000    0.6344    0.0000 H   0  0  0  0  0  0  0  0  0  0  0  0
    3.4070    0.0000    0.0000 H   0  0  0  0  0  0  0  0  0  0  0  0
    4.5622    0.3776    0.0000 H   0  0  0  0  0  0  0  0  0  0  0  0
    4.7581    1.3070    0.0000 H   0  0  0  0  0  0  0  0  0  0  0  0
    4.4188    3.3476    0.0000 H   0  0  0  0  0  0  0  0  0  0  0  0
    1.4030    1.7276    0.0000 H   0  0  0  0  0  0  0  0  0  0  0  0
    1.4030    4.9676    0.0000 H   0  0  0  0  0  0  0  0  0  0  0  0
    0.0000    2.5376    0.0000 H   0  0  0  0  0  0  0  0  0  0  0  0
    0.0000    4.1576    0.0000 H   0  0  0  0  0  0  0  0  0  0  0  0
    2.2514    5.7193    0.0000 H   0  0  0  0  0  0  0  0  0  0  0  0
    2.7546    7.2591    0.0000 H   0  0  0  0  0  0  0  0  0  0  0  0
    6.2076    6.0043    0.0000 H   0  0  0  0  0  0  0  0  0  0  0  0
    8.0353    9.8544    0.0000 H   0  0  0  0  0  0  0  0  0  0  0  0
    8.6285   10.3867    0.0000 H   0  0  0  0  0  0  0  0  0  0  0  0
    4.8297    8.0328    0.0000 H   0  0  0  0  0  0  0  0  0  0  0  0
    8.0000    8.7009    0.0000 H   0  0  0  0  0  0  0  0  0  0  0  0
    8.3048   12.0443    0.0000 H   0  0  0  0  0  0  0  0  0  0  0  0
    7.7115   11.5120    0.0000 H   0  0  0  0  0  0  0  0  0  0  0  0
    6.8298   11.4262    0.0000 H   0  0  0  0  0  0  0  0  0  0  0  0
    5.9543   11.4736    0.0000 H   0  0  0  0  0  0  0  0  0  0  0  0
    5.9069   10.5981    0.0000 H   0  0  0  0  0  0  0  0  0  0  0  0
    5.2718   10.4448    0.0000 H   0  0  0  0  0  0  0  0  0  0  0  0
   10.2039   12.3887    0.0000 H   0  0  0  0  0  0  0  0  0  0  0  0
    9.8071   13.1707    0.0000 H   0  0  0  0  0  0  0  0  0  0  0  0
    9.0252   12.7740    0.0000 H   0  0  0  0  0  0  0  0  0  0  0  0
    9.5102   10.4725    0.0000 H   0  0  0  0  0  0  0  0  0  0  0  0
   10.3858   10.4251    0.0000 H   0  0  0  0  0  0  0  0  0  0  0  0
   10.4332   11.3006    0.0000 H   0  0  0  0  0  0  0  0  0  0  0  0
    8.8569    6.4778    0.0000 H   0  0  0  0  0  0  0  0  0  0  0  0
    9.3357    7.2123    0.0000 H   0  0  0  0  0  0  0  0  0  0  0  0
    8.6012    7.6911    0.0000 H   0  0  0  0  0  0  0  0  0  0  0  0
    3.6254   10.9828    0.0000 H   0  0  0  0  0  0  0  0  0  0  0  0
    2.0403   10.6488    0.0000 H   0  0  0  0  0  0  0  0  0  0  0  0
    2.2617    9.5980    0.0000 H   0  0  0  0  0  0  0  0  0  0  0  0
   12.6591    6.7077    0.0000 H   0  0  0  0  0  0  0  0  0  0  0  0
   12.4322    5.8608    0.0000 H   0  0  0  0  0  0  0  0  0  0  0  0
   13.2791    5.6338    0.0000 H   0  0  0  0  0  0  0  0  0  0  0  0
   15.2381    6.8608    0.0000 H   0  0  0  0  0  0  0  0  0  0  0  0
  1  4  1  0  0  0  0
  1  5  2  0  0  0  0
  1  6  2  0  0  0  0
  1 44  1  0  0  0  0
  2 32  1  0  0  0  0
  2 41  1  0  0  0  0
  3 40  2  0  0  0  0
  4 83  1  0  0  0  0
  7 14  1  0  0  0  0
  7 17  1  0  0  0  0
  7 18  1  0  0  0  0
  8 23  2  0  0  0  0
  8 27  1  0  0  0  0
  9 27  2  0  0  0  0
  9 28  1  0  0  0  0
 10 27  1  0  0  0  0
 10 29  1  0  0  0  0
 10 57  1  0  0  0  0
 11 30  1  0  0  0  0
 11 31  1  0  0  0  0
 11 37  1  0  0  0  0
 12 36  1  0  0  0  0
 12 38  1  0  0  0  0
 12 39  1  0  0  0  0
 13 34  1  0  0  0  0
 13 40  1  0  0  0  0
 13 67  1  0  0  0  0
 14 15  1  0  0  0  0
 14 16  1  0  0  0  0
 14 45  1  0  0  0  0
 15 16  1  0  0  0  0
 15 46  1  0  0  0  0
 15 47  1  0  0  0  0
 16 48  1  0  0  0  0
 16 49  1  0  0  0  0
 17 19  1  0  0  0  0
 17 21  2  0  0  0  0
 18 20  2  0  0  0  0
 18 50  1  0  0  0  0
 19 20  1  0  0  0  0
 19 22  2  0  0  0  0
 20 23  1  0  0  0  0
 21 24  1  0  0  0  0
 21 51  1  0  0  0  0
 22 25  1  0  0  0  0
 22 52  1  0  0  0  0
 23 26  1  0  0  0  0
 24 25  2  0  0  0  0
 24 53  1  0  0  0  0
 25 54  1  0  0  0  0
 26 28  2  0  0  0  0
 26 55  1  0  0  0  0
 28 56  1  0  0  0  0
 29 32  2  0  0  0  0
 29 33  1  0  0  0  0
 30 34  1  0  0  0  0
 30 35  2  0  0  0  0
 31 36  1  0  0  0  0
 31 58  1  0  0  0  0
 31 59  1  0  0  0  0
 32 35  1  0  0  0  0
 33 34  2  0  0  0  0
 33 60  1  0  0  0  0
 35 61  1  0  0  0  0
 36 62  1  0  0  0  0
 36 63  1  0  0  0  0
 37 64  1  0  0  0  0
 37 65  1  0  0  0  0
 37 66  1  0  0  0  0
 38 68  1  0  0  0  0
 38 69  1  0  0  0  0
 38 70  1  0  0  0  0
 39 71  1  0  0  0  0
 39 72  1  0  0  0  0
 39 73  1  0  0  0  0
 40 42  1  0  0  0  0
 41 74  1  0  0  0  0
 41 75  1  0  0  0  0
 41 76  1  0  0  0  0
 42 43  2  0  0  0  0
 42 77  1  0  0  0  0
 43 78  1  0  0  0  0
 43 79  1  0  0  0  0
 44 80  1  0  0  0  0
 44 81  1  0  0  0  0
 44 82  1  0  0  0  0
M  END
> <PUBCHEM_COMPOUND_CID>
162368359

> <PUBCHEM_COMPOUND_CANONICALIZED>
1

> <PUBCHEM_CACTVS_COMPLEXITY>
916

> <PUBCHEM_CACTVS_HBOND_ACCEPTOR>
10

> <PUBCHEM_CACTVS_HBOND_DONOR>
3

> <PUBCHEM_CACTVS_ROTATABLE_BOND>
11

> <PUBCHEM_CACTVS_SUBSKEYS>
AAADcfB7uABAAAAAAAAAAAAAGAAAAWAAAAA8YIAAAAAAAFgB/AAAHgQQCAAADCzBnga/1vfMFIKoAzV3dHCCiCkxIqAJ2CA/fNiObuLE+duVNChu1BvY6Kew0MMOgECAAgQCECAAgQAECAQgQAAAAAAAAA==

> <PUBCHEM_IUPAC_OPENEYE_NAME>
N-[5-[[4-(1-cyclopropylindol-3-yl)pyrimidin-2-yl]amino]-2-[2-(dimethylamino)ethyl-methyl-amino]-4-methoxy-phenyl]prop-2-enamide;methanesulfonic acid

> <PUBCHEM_IUPAC_CAS_NAME>
N-[5-[[4-(1-cyclopropyl-3-indolyl)-2-pyrimidinyl]amino]-2-[2-(dimethylamino)ethyl-methylamino]-4-methoxyphenyl]-2-propenamide;methanesulfonic acid

> <PUBCHEM_IUPAC_NAME_MARKUP>
<I>N</I>-[5-[[4-(1-cyclopropylindol-3-yl)pyrimidin-2-yl]amino]-2-[2-(dimethylamino)ethyl-methylamino]-4-methoxyphenyl]prop-2-enamide;methanesulfonic acid

> <PUBCHEM_IUPAC_NAME>
N-[5-[[4-(1-cyclopropylindol-3-yl)pyrimidin-2-yl]amino]-2-[2-(dimethylamino)ethyl-methylamino]-4-methoxyphenyl]prop-2-enamide;methanesulfonic acid

> <PUBCHEM_IUPAC_SYSTEMATIC_NAME>
N-[5-[[4-(1-cyclopropylindol-3-yl)pyrimidin-2-yl]amino]-2-[2-(dimethylamino)ethyl-methyl-amino]-4-methoxy-phenyl]prop-2-enamide;methanesulfonic acid

> <PUBCHEM_IUPAC_TRADITIONAL_NAME>
N-[5-[[4-(1-cyclopropylindol-3-yl)pyrimidin-2-yl]amino]-2-[2-(dimethylamino)ethyl-methyl-amino]-4-methoxy-phenyl]acrylamide;mesylic acid

> <PUBCHEM_IUPAC_INCHI>
InChI=1S/C30H35N7O2.CH4O3S/c1-6-29(38)32-24-17-25(28(39-5)18-27(24)36(4)16-15-35(2)3)34-30-31-14-13-23(33-30)22-19-37(20-11-12-20)26-10-8-7-9-21(22)26;1-5(2,3)4/h6-10,13-14,17-20H,1,11-12,15-16H2,2-5H3,(H,32,38)(H,31,33,34);1H3,(H,2,3,4)

> <PUBCHEM_IUPAC_INCHIKEY>
WTEXJDGTVUQRQY-UHFFFAOYSA-N

> <PUBCHEM_EXACT_MASS>
621.27333854

> <PUBCHEM_MOLECULAR_FORMULA>
C31H39N7O5S

> <PUBCHEM_MOLECULAR_WEIGHT>
621.8

> <PUBCHEM_OPENEYE_CAN_SMILES>
CN(C)CCN(C)C1=CC(=C(C=C1NC(=O)C=C)NC2=NC=CC(=N2)C3=CN(C4=CC=CC=C43)C5CC5)OC.CS(=O)(=O)O

> <PUBCHEM_OPENEYE_ISO_SMILES>
CN(C)CCN(C)C1=CC(=C(C=C1NC(=O)C=C)NC2=NC=CC(=N2)C3=CN(C4=CC=CC=C43)C5CC5)OC.CS(=O)(=O)O

> <PUBCHEM_CACTVS_TPSA>
150

> <PUBCHEM_MONOISOTOPIC_WEIGHT>
621.27333854

> <PUBCHEM_TOTAL_CHARGE>
0

> <PUBCHEM_HEAVY_ATOM_COUNT>
44

> <PUBCHEM_ATOM_DEF_STEREO_COUNT>
0

> <PUBCHEM_ATOM_UDEF_STEREO_COUNT>
0

> <PUBCHEM_BOND_DEF_STEREO_COUNT>
0

> <PUBCHEM_BOND_UDEF_STEREO_COUNT>
0

> <PUBCHEM_ISOTOPIC_ATOM_COUNT>
0

> <PUBCHEM_COMPONENT_COUNT>
2

> <PUBCHEM_CACTVS_TAUTO_COUNT>
-1

> <PUBCHEM_COORDINATE_TYPE>
1
5
255

> <PUBCHEM_BONDANNOTATIONS>
17  19  8
17  21  8
18  20  8
19  20  8
19  22  8
21  24  8
22  25  8
23  26  8
24  25  8
26  28  8
29  32  8
29  33  8
30  34  8
30  35  8
32  35  8
33  34  8
7  17  8
7  18  8
8  23  8
8  27  8
9  27  8
9  28  8

$$$$
4708
  -OEChem-11282412102D

 36 38  0     0  0  0  0  0  0999 V2000
    9.7758   -3.0445    0.0000 Br  0  0  0  0  0  0  0  0  0  0  0  0
    3.7320    2.5099    0.0000 O   0  0  0  0  0  0  0  0  0  0  0  0
    8.0785   -0.0247    0.0000 N   0  0  0  0  0  0  0  0  0  0  0  0
    8.0901    3.0445    0.0000 N   0  0  0  0  0  0  0  0  0  0  0  0
    8.9962    1.4891    0.0000 N   0  0  0  0  0  0  0  0  0  0  0  0
    4.5981    1.0099    0.0000 N   0  0  0  0  0  0  0  0  0  0  0  0
    7.1962    1.5099    0.0000 C   0  0  0  0  0  0  0  0  0  0  0  0
    7.1962    2.5099    0.0000 C   0  0  0  0  0  0  0  0  0  0  0  0
    8.0901    0.9752    0.0000 C   0  0  0  0  0  0  0  0  0  0  0  0
    6.3301    1.0099    0.0000 C   0  0  0  0  0  0  0  0  0  0  0  0
    5.4641    1.5099    0.0000 C   0  0  0  0  0  0  0  0  0  0  0  0
    6.3301    3.0099    0.0000 C   0  0  0  0  0  0  0  0  0  0  0  0
    5.4641    2.5099    0.0000 C   0  0  0  0  0  0  0  0  0  0  0  0
    8.9387   -0.5347    0.0000 C   0  0  0  0  0  0  0  0  0  0  0  0
    8.9271   -1.5346    0.0000 C   0  0  0  0  0  0  0  0  0  0  0  0
    9.8105   -0.0447    0.0000 C   0  0  0  0  0  0  0  0  0  0  0  0
    8.9962    2.5307    0.0000 C   0  0  0  0  0  0  0  0  0  0  0  0
    9.7873   -2.0446    0.0000 C   0  0  0  0  0  0  0  0  0  0  0  0
   10.6707   -0.5547    0.0000 C   0  0  0  0  0  0  0  0  0  0  0  0
   10.6591   -1.5547    0.0000 C   0  0  0  0  0  0  0  0  0  0  0  0
    3.7320    1.5099    0.0000 C   0  0  0  0  0  0  0  0  0  0  0  0
    2.8660    1.0099    0.0000 C   0  0  0  0  0  0  0  0  0  0  0  0
    2.0000    1.5099    0.0000 C   0  0  0  0  0  0  0  0  0  0  0  0
    6.3301    0.3899    0.0000 H   0  0  0  0  0  0  0  0  0  0  0  0
    6.3301    3.6299    0.0000 H   0  0  0  0  0  0  0  0  0  0  0  0
    7.5380   -0.3285    0.0000 H   0  0  0  0  0  0  0  0  0  0  0  0
    4.9272    2.8199    0.0000 H   0  0  0  0  0  0  0  0  0  0  0  0
    4.5981    0.3899    0.0000 H   0  0  0  0  0  0  0  0  0  0  0  0
    8.3867   -1.8384    0.0000 H   0  0  0  0  0  0  0  0  0  0  0  0
    9.8176    0.5752    0.0000 H   0  0  0  0  0  0  0  0  0  0  0  0
    9.5319    2.8428    0.0000 H   0  0  0  0  0  0  0  0  0  0  0  0
   11.2111   -0.2510    0.0000 H   0  0  0  0  0  0  0  0  0  0  0  0
   11.1924   -1.8708    0.0000 H   0  0  0  0  0  0  0  0  0  0  0  0
    2.8660    0.3899    0.0000 H   0  0  0  0  0  0  0  0  0  0  0  0
    2.0000    2.1299    0.0000 H   0  0  0  0  0  0  0  0  0  0  0  0
    1.4631    1.1999    0.0000 H   0  0  0  0  0  0  0  0  0  0  0  0
  1 18  1  0  0  0  0
  2 21  2  0  0  0  0
  3  9  1  0  0  0  0
  3 14  1  0  0  0  0
  3 26  1  0  0  0  0
  4  8  1  0  0  0  0
  4 17  2  0  0  0  0
  5  9  2  0  0  0  0
  5 17  1  0  0  0  0
  6 11  1  0  0  0  0
  6 21  1  0  0  0  0
  6 28  1  0  0  0  0
  7  8  2  0  0  0  0
  7  9  1  0  0  0  0
  7 10  1  0  0  0  0
  8 12  1  0  0  0  0
 10 11  2  0  0  0  0
 10 24  1  0  0  0  0
 11 13  1  0  0  0  0
 12 13  2  0  0  0  0
 12 25  1  0  0  0  0
 13 27  1  0  0  0  0
 14 15  2  0  0  0  0
 14 16  1  0  0  0  0
 15 18  1  0  0  0  0
 15 29  1  0  0  0  0
 16 19  2  0  0  0  0
 16 30  1  0  0  0  0
 17 31  1  0  0  0  0
 18 20  2  0  0  0  0
 19 20  1  0  0  0  0
 19 32  1  0  0  0  0
 20 33  1  0  0  0  0
 21 22  1  0  0  0  0
 22 23  2  0  0  0  0
 22 34  1  0  0  0  0
 23 35  1  0  0  0  0
 23 36  1  0  0  0  0
M  END
> <PUBCHEM_COMPOUND_CID>
4708

> <PUBCHEM_COMPOUND_CANONICALIZED>
1

> <PUBCHEM_CACTVS_COMPLEXITY>
433

> <PUBCHEM_CACTVS_HBOND_ACCEPTOR>
4

> <PUBCHEM_CACTVS_HBOND_DONOR>
2

> <PUBCHEM_CACTVS_ROTATABLE_BOND>
4

> <PUBCHEM_CACTVS_SUBSKEYS>
AAADccB7oAAAEAAAAAAAAAAAAAAAAAAAAAA8YIAAAAAAAACx9AAAHgBQAAABrAiBngQ18PbIEACoAydzdACCgCkxAqQJ2CA4ZPiIKOLA2dGEJAholALIyrcQgAAOAACAQAECAAAAAQCAAgQAAAAAAAAAAA==

> <PUBCHEM_IUPAC_OPENEYE_NAME>
N-[4-(3-bromoanilino)quinazolin-6-yl]prop-2-enamide

> <PUBCHEM_IUPAC_CAS_NAME>
N-[4-(3-bromoanilino)-6-quinazolinyl]-2-propenamide

> <PUBCHEM_IUPAC_NAME_MARKUP>
<I>N</I>-[4-(3-bromoanilino)quinazolin-6-yl]prop-2-enamide

> <PUBCHEM_IUPAC_NAME>
N-[4-(3-bromoanilino)quinazolin-6-yl]prop-2-enamide

> <PUBCHEM_IUPAC_SYSTEMATIC_NAME>
N-[4-[(3-bromophenyl)amino]quinazolin-6-yl]prop-2-enamide

> <PUBCHEM_IUPAC_TRADITIONAL_NAME>
N-[4-(3-bromoanilino)quinazolin-6-yl]acrylamide

> <PUBCHEM_IUPAC_INCHI>
InChI=1S/C17H13BrN4O/c1-2-16(23)21-13-6-7-15-14(9-13)17(20-10-19-15)22-12-5-3-4-11(18)8-12/h2-10H,1H2,(H,21,23)(H,19,20,22)

> <PUBCHEM_IUPAC_INCHIKEY>
HTUBKQUPEREOGA-UHFFFAOYSA-N

> <PUBCHEM_XLOGP3_AA>
3.9

> <PUBCHEM_EXACT_MASS>
368.02727

> <PUBCHEM_MOLECULAR_FORMULA>
C17H13BrN4O

> <PUBCHEM_MOLECULAR_WEIGHT>
369.2

> <PUBCHEM_OPENEYE_CAN_SMILES>
C=CC(=O)NC1=CC2=C(C=C1)N=CN=C2NC3=CC(=CC=C3)Br

> <PUBCHEM_OPENEYE_ISO_SMILES>
C=CC(=O)NC1=CC2=C(C=C1)N=CN=C2NC3=CC(=CC=C3)Br

> <PUBCHEM_CACTVS_TPSA>
66.9

> <PUBCHEM_MONOISOTOPIC_WEIGHT>
368.02727

> <PUBCHEM_TOTAL_CHARGE>
0

> <PUBCHEM_HEAVY_ATOM_COUNT>
23

> <PUBCHEM_ATOM_DEF_STEREO_COUNT>
0

> <PUBCHEM_ATOM_UDEF_STEREO_COUNT>
0

> <PUBCHEM_BOND_DEF_STEREO_COUNT>
0

> <PUBCHEM_BOND_UDEF_STEREO_COUNT>
0

> <PUBCHEM_ISOTOPIC_ATOM_COUNT>
0

> <PUBCHEM_COMPONENT_COUNT>
1

> <PUBCHEM_CACTVS_TAUTO_COUNT>
-1

> <PUBCHEM_COORDINATE_TYPE>
1
5
255

> <PUBCHEM_BONDANNOTATIONS>
10  11  8
11  13  8
12  13  8
14  15  8
14  16  8
15  18  8
16  19  8
18  20  8
19  20  8
4  17  8
4  8  8
5  17  8
5  9  8
7  10  8
7  8  8
7  9  8
8  12  8

$$$$
3895
  -OEChem-11282412102D

 46 48  0     0  0  0  0  0  0999 V2000
    8.0622    1.9050    0.0000 O   0  0  0  0  0  0  0  0  0  0  0  0
    2.8660    1.9050    0.0000 O   0  0  0  0  0  0  0  0  0  0  0  0
    5.4641   -3.5950    0.0000 O   0  0  0  0  0  0  0  0  0  0  0  0
    2.8660   -2.0950    0.0000 O   0  0  0  0  0  0  0  0  0  0  0  0
    3.7320   -3.5950    0.0000 O   0  0  0  0  0  0  0  0  0  0  0  0
    5.4641    0.4050    0.0000 N   0  0  0  0  0  0  0  0  0  0  0  0
    6.3301    0.9050    0.0000 C   0  0  0  0  0  0  0  0  0  0  0  0
    4.5981    0.9050    0.0000 C   0  0  0  0  0  0  0  0  0  0  0  0
    5.4641   -0.5950    0.0000 C   0  0  0  0  0  0  0  0  0  0  0  0
    6.3301    1.9050    0.0000 C   0  0  0  0  0  0  0  0  0  0  0  0
    3.7320    0.4050    0.0000 C   0  0  0  0  0  0  0  0  0  0  0  0
    4.5981   -1.0950    0.0000 C   0  0  0  0  0  0  0  0  0  0  0  0
    6.3301   -1.0950    0.0000 C   0  0  0  0  0  0  0  0  0  0  0  0
    7.1962    2.4050    0.0000 C   0  0  0  0  0  0  0  0  0  0  0  0
    2.8660    0.9050    0.0000 C   0  0  0  0  0  0  0  0  0  0  0  0
    5.4641    2.4050    0.0000 C   0  0  0  0  0  0  0  0  0  0  0  0
    3.7320   -0.5950    0.0000 C   0  0  0  0  0  0  0  0  0  0  0  0
    4.5981   -2.0950    0.0000 C   0  0  0  0  0  0  0  0  0  0  0  0
    6.3301   -2.0950    0.0000 C   0  0  0  0  0  0  0  0  0  0  0  0
    5.4641   -2.5950    0.0000 C   0  0  0  0  0  0  0  0  0  0  0  0
    7.1962    3.4050    0.0000 C   0  0  0  0  0  0  0  0  0  0  0  0
    2.0000    0.4050    0.0000 C   0  0  0  0  0  0  0  0  0  0  0  0
    5.4641    3.4050    0.0000 C   0  0  0  0  0  0  0  0  0  0  0  0
    2.8660   -1.0950    0.0000 C   0  0  0  0  0  0  0  0  0  0  0  0
    6.3301    3.9050    0.0000 C   0  0  0  0  0  0  0  0  0  0  0  0
    2.0000   -0.5950    0.0000 C   0  0  0  0  0  0  0  0  0  0  0  0
    3.7320   -2.5950    0.0000 C   0  0  0  0  0  0  0  0  0  0  0  0
    6.5422    0.3224    0.0000 H   0  0  0  0  0  0  0  0  0  0  0  0
    6.9407    1.0127    0.0000 H   0  0  0  0  0  0  0  0  0  0  0  0
    4.9966    1.3800    0.0000 H   0  0  0  0  0  0  0  0  0  0  0  0
    4.1996    1.3800    0.0000 H   0  0  0  0  0  0  0  0  0  0  0  0
    4.0611   -0.7850    0.0000 H   0  0  0  0  0  0  0  0  0  0  0  0
    6.8671   -0.7850    0.0000 H   0  0  0  0  0  0  0  0  0  0  0  0
    4.9272    2.0950    0.0000 H   0  0  0  0  0  0  0  0  0  0  0  0
    4.2690   -0.9050    0.0000 H   0  0  0  0  0  0  0  0  0  0  0  0
    6.8671   -2.4050    0.0000 H   0  0  0  0  0  0  0  0  0  0  0  0
    7.7331    3.7150    0.0000 H   0  0  0  0  0  0  0  0  0  0  0  0
    1.4631    0.7150    0.0000 H   0  0  0  0  0  0  0  0  0  0  0  0
    4.9272    3.7150    0.0000 H   0  0  0  0  0  0  0  0  0  0  0  0
    2.8660   -1.7150    0.0000 H   0  0  0  0  0  0  0  0  0  0  0  0
    6.3301    4.5250    0.0000 H   0  0  0  0  0  0  0  0  0  0  0  0
    1.4631   -0.9050    0.0000 H   0  0  0  0  0  0  0  0  0  0  0  0
    8.5991    2.2150    0.0000 H   0  0  0  0  0  0  0  0  0  0  0  0
    2.3291    2.2150    0.0000 H   0  0  0  0  0  0  0  0  0  0  0  0
    6.0010   -3.9050    0.0000 H   0  0  0  0  0  0  0  0  0  0  0  0
    2.3291   -2.4050    0.0000 H   0  0  0  0  0  0  0  0  0  0  0  0
  1 14  1  0  0  0  0
  1 43  1  0  0  0  0
  2 15  1  0  0  0  0
  2 44  1  0  0  0  0
  3 20  1  0  0  0  0
  3 45  1  0  0  0  0
  4 27  1  0  0  0  0
  4 46  1  0  0  0  0
  5 27  2  0  0  0  0
  6  7  1  0  0  0  0
  6  8  1  0  0  0  0
  6  9  1  0  0  0  0
  7 10  1  0  0  0  0
  7 28  1  0  0  0  0
  7 29  1  0  0  0  0
  8 11  1  0  0  0  0
  8 30  1  0  0  0  0
  8 31  1  0  0  0  0
  9 12  2  0  0  0  0
  9 13  1  0  0  0  0
 10 14  1  0  0  0  0
 10 16  2  0  0  0  0
 11 15  1  0  0  0  0
 11 17  2  0  0  0  0
 12 18  1  0  0  0  0
 12 32  1  0  0  0  0
 13 19  2  0  0  0  0
 13 33  1  0  0  0  0
 14 21  2  0  0  0  0
 15 22  2  0  0  0  0
 16 23  1  0  0  0  0
 16 34  1  0  0  0  0
 17 24  1  0  0  0  0
 17 35  1  0  0  0  0
 18 20  2  0  0  0  0
 18 27  1  0  0  0  0
 19 20  1  0  0  0  0
 19 36  1  0  0  0  0
 21 25  1  0  0  0  0
 21 37  1  0  0  0  0
 22 26  1  0  0  0  0
 22 38  1  0  0  0  0
 23 25  2  0  0  0  0
 23 39  1  0  0  0  0
 24 26  2  0  0  0  0
 24 40  1  0  0  0  0
 25 41  1  0  0  0  0
 26 42  1  0  0  0  0
M  END
> <PUBCHEM_COMPOUND_CID>
3895

> <PUBCHEM_COMPOUND_CANONICALIZED>
1

> <PUBCHEM_CACTVS_COMPLEXITY>
463

> <PUBCHEM_CACTVS_HBOND_ACCEPTOR>
6

> <PUBCHEM_CACTVS_HBOND_DONOR>
4

> <PUBCHEM_CACTVS_ROTATABLE_BOND>
6

> <PUBCHEM_CACTVS_SUBSKEYS>
AAADceB6OAAAAAAAAAAAAAAAAAAAAAAAAAAwYMAAAAAAAAABUAAAHgAACAAADAzBmAQwzoMAAgCIAiTSSACCAAAlIgAIiAEObMgIJzbClZOEcUhn4BHI2Ye8yCCOAEAAQAAIAAAAgACAABAAAAAAAAAAAA==

> <PUBCHEM_IUPAC_OPENEYE_NAME>
5-[bis[(2-hydroxyphenyl)methyl]amino]-2-hydroxy-benzoic acid

> <PUBCHEM_IUPAC_CAS_NAME>
5-[bis[(2-hydroxyphenyl)methyl]amino]-2-hydroxybenzoic acid

> <PUBCHEM_IUPAC_NAME_MARKUP>
5-[bis[(2-hydroxyphenyl)methyl]amino]-2-hydroxybenzoic acid

> <PUBCHEM_IUPAC_NAME>
5-[bis[(2-hydroxyphenyl)methyl]amino]-2-hydroxybenzoic acid

> <PUBCHEM_IUPAC_SYSTEMATIC_NAME>
5-[bis[(2-hydroxyphenyl)methyl]amino]-2-oxidanyl-benzoic acid

> <PUBCHEM_IUPAC_TRADITIONAL_NAME>
5-(disalicylamino)-2-hydroxy-benzoic acid

> <PUBCHEM_IUPAC_INCHI>
InChI=1S/C21H19NO5/c23-18-7-3-1-5-14(18)12-22(13-15-6-2-4-8-19(15)24)16-9-10-20(25)17(11-16)21(26)27/h1-11,23-25H,12-13H2,(H,26,27)

> <PUBCHEM_IUPAC_INCHIKEY>
RTYOLBQXFXYMKY-UHFFFAOYSA-N

> <PUBCHEM_XLOGP3_AA>
4

> <PUBCHEM_EXACT_MASS>
365.12632271

> <PUBCHEM_MOLECULAR_FORMULA>
C21H19NO5

> <PUBCHEM_MOLECULAR_WEIGHT>
365.4

> <PUBCHEM_OPENEYE_CAN_SMILES>
C1=CC=C(C(=C1)CN(CC2=CC=CC=C2O)C3=CC(=C(C=C3)O)C(=O)O)O

> <PUBCHEM_OPENEYE_ISO_SMILES>
C1=CC=C(C(=C1)CN(CC2=CC=CC=C2O)C3=CC(=C(C=C3)O)C(=O)O)O

> <PUBCHEM_CACTVS_TPSA>
101

> <PUBCHEM_MONOISOTOPIC_WEIGHT>
365.12632271

> <PUBCHEM_TOTAL_CHARGE>
0

> <PUBCHEM_HEAVY_ATOM_COUNT>
27

> <PUBCHEM_ATOM_DEF_STEREO_COUNT>
0

> <PUBCHEM_ATOM_UDEF_STEREO_COUNT>
0

> <PUBCHEM_BOND_DEF_STEREO_COUNT>
0

> <PUBCHEM_BOND_UDEF_STEREO_COUNT>
0

> <PUBCHEM_ISOTOPIC_ATOM_COUNT>
0

> <PUBCHEM_COMPONENT_COUNT>
1

> <PUBCHEM_CACTVS_TAUTO_COUNT>
-1

> <PUBCHEM_COORDINATE_TYPE>
1
5
255

> <PUBCHEM_BONDANNOTATIONS>
10  14  8
10  16  8
11  15  8
11  17  8
12  18  8
13  19  8
14  21  8
15  22  8
16  23  8
17  24  8
18  20  8
19  20  8
21  25  8
22  26  8
23  25  8
24  26  8
9  12  8
9  13  8

$$$$
667639
  -OEChem-11282412102D

 30 31  0     0  0  0  0  0  0999 V2000
    2.5369   -2.9050    0.0000 O   0  0  0  0  0  0  0  0  0  0  0  0
    6.8671    3.5950    0.0000 O   0  0  0  0  0  0  0  0  0  0  0  0
    3.4030    3.5950    0.0000 O   0  0  0  0  0  0  0  0  0  0  0  0
    4.2690   -3.9050    0.0000 O   0  0  0  0  0  0  0  0  0  0  0  0
    5.1350    1.5950    0.0000 C   0  0  0  0  0  0  0  0  0  0  0  0
    4.2690   -0.9050    0.0000 C   0  0  0  0  0  0  0  0  0  0  0  0
    5.1350    0.5950    0.0000 C   0  0  0  0  0  0  0  0  0  0  0  0
    4.2690    0.0950    0.0000 C   0  0  0  0  0  0  0  0  0  0  0  0
    3.4030   -1.4050    0.0000 C   0  0  0  0  0  0  0  0  0  0  0  0
    4.2690    2.0950    0.0000 C   0  0  0  0  0  0  0  0  0  0  0  0
    6.0010    2.0950    0.0000 C   0  0  0  0  0  0  0  0  0  0  0  0
    5.1350   -1.4050    0.0000 C   0  0  0  0  0  0  0  0  0  0  0  0
    3.4030   -2.4050    0.0000 C   0  0  0  0  0  0  0  0  0  0  0  0
    6.0010    3.0950    0.0000 C   0  0  0  0  0  0  0  0  0  0  0  0
    4.2690    3.0950    0.0000 C   0  0  0  0  0  0  0  0  0  0  0  0
    5.1350   -2.4050    0.0000 C   0  0  0  0  0  0  0  0  0  0  0  0
    4.2690   -2.9050    0.0000 C   0  0  0  0  0  0  0  0  0  0  0  0
    5.1350    3.5950    0.0000 C   0  0  0  0  0  0  0  0  0  0  0  0
    5.6720    0.2850    0.0000 H   0  0  0  0  0  0  0  0  0  0  0  0
    3.7320    0.4050    0.0000 H   0  0  0  0  0  0  0  0  0  0  0  0
    2.8660   -1.0950    0.0000 H   0  0  0  0  0  0  0  0  0  0  0  0
    3.7320    1.7850    0.0000 H   0  0  0  0  0  0  0  0  0  0  0  0
    6.5380    1.7850    0.0000 H   0  0  0  0  0  0  0  0  0  0  0  0
    5.6720   -1.0950    0.0000 H   0  0  0  0  0  0  0  0  0  0  0  0
    5.6720   -2.7150    0.0000 H   0  0  0  0  0  0  0  0  0  0  0  0
    5.1350    4.2150    0.0000 H   0  0  0  0  0  0  0  0  0  0  0  0
    2.0000   -2.5950    0.0000 H   0  0  0  0  0  0  0  0  0  0  0  0
    6.8671    4.2150    0.0000 H   0  0  0  0  0  0  0  0  0  0  0  0
    3.4030    4.2150    0.0000 H   0  0  0  0  0  0  0  0  0  0  0  0
    4.8059   -4.2150    0.0000 H   0  0  0  0  0  0  0  0  0  0  0  0
  1 13  1  0  0  0  0
  1 27  1  0  0  0  0
  2 14  1  0  0  0  0
  2 28  1  0  0  0  0
  3 15  1  0  0  0  0
  3 29  1  0  0  0  0
  4 17  1  0  0  0  0
  4 30  1  0  0  0  0
  5  7  1  0  0  0  0
  5 10  2  0  0  0  0
  5 11  1  0  0  0  0
  6  8  1  0  0  0  0
  6  9  2  0  0  0  0
  6 12  1  0  0  0  0
  7  8  2  0  0  0  0
  7 19  1  0  0  0  0
  8 20  1  0  0  0  0
  9 13  1  0  0  0  0
  9 21  1  0  0  0  0
 10 15  1  0  0  0  0
 10 22  1  0  0  0  0
 11 14  2  0  0  0  0
 11 23  1  0  0  0  0
 12 16  2  0  0  0  0
 12 24  1  0  0  0  0
 13 17  2  0  0  0  0
 14 18  1  0  0  0  0
 15 18  2  0  0  0  0
 16 17  1  0  0  0  0
 16 25  1  0  0  0  0
 18 26  1  0  0  0  0
M  END
> <PUBCHEM_COMPOUND_CID>
667639

> <PUBCHEM_COMPOUND_CANONICALIZED>
1

> <PUBCHEM_CACTVS_COMPLEXITY>
282

> <PUBCHEM_CACTVS_HBOND_ACCEPTOR>
4

> <PUBCHEM_CACTVS_HBOND_DONOR>
4

> <PUBCHEM_CACTVS_ROTATABLE_BOND>
2

> <PUBCHEM_CACTVS_SUBSKEYS>
AAADccBwOAAAAAAAAAAAAAAAAAAAAAAAAAAwYAAAAAAAAAABQAAAGgAACAAADASAmAAwBoAAAgCAAiBCAAACAAAgIAAIiAAGiIgJJyKCERKAcAElwBUJmAeA4BQOIAABCAAAQABAAAIQAACAAAAAAAAAAA==

> <PUBCHEM_IUPAC_OPENEYE_NAME>
4-[(E)-2-(3,5-dihydroxyphenyl)vinyl]benzene-1,2-diol

> <PUBCHEM_IUPAC_CAS_NAME>
4-[(E)-2-(3,5-dihydroxyphenyl)ethenyl]benzene-1,2-diol

> <PUBCHEM_IUPAC_NAME_MARKUP>
4-[(<I>E</I>)-2-(3,5-dihydroxyphenyl)ethenyl]benzene-1,2-diol

> <PUBCHEM_IUPAC_NAME>
4-[(E)-2-(3,5-dihydroxyphenyl)ethenyl]benzene-1,2-diol

> <PUBCHEM_IUPAC_SYSTEMATIC_NAME>
4-[(E)-2-[3,5-bis(oxidanyl)phenyl]ethenyl]benzene-1,2-diol

> <PUBCHEM_IUPAC_TRADITIONAL_NAME>
4-[(E)-2-(3,5-dihydroxyphenyl)vinyl]pyrocatechol

> <PUBCHEM_IUPAC_INCHI>
InChI=1S/C14H12O4/c15-11-5-10(6-12(16)8-11)2-1-9-3-4-13(17)14(18)7-9/h1-8,15-18H/b2-1+

> <PUBCHEM_IUPAC_INCHIKEY>
CDRPUGZCRXZLFL-OWOJBTEDSA-N

> <PUBCHEM_XLOGP3>
2.9

> <PUBCHEM_EXACT_MASS>
244.07355886

> <PUBCHEM_MOLECULAR_FORMULA>
C14H12O4

> <PUBCHEM_MOLECULAR_WEIGHT>
244.24

> <PUBCHEM_OPENEYE_CAN_SMILES>
C1=CC(=C(C=C1C=CC2=CC(=CC(=C2)O)O)O)O

> <PUBCHEM_OPENEYE_ISO_SMILES>
C1=CC(=C(C=C1/C=C/C2=CC(=CC(=C2)O)O)O)O

> <PUBCHEM_CACTVS_TPSA>
80.9

> <PUBCHEM_MONOISOTOPIC_WEIGHT>
244.07355886

> <PUBCHEM_TOTAL_CHARGE>
0

> <PUBCHEM_HEAVY_ATOM_COUNT>
18

> <PUBCHEM_ATOM_DEF_STEREO_COUNT>
0

> <PUBCHEM_ATOM_UDEF_STEREO_COUNT>
0

> <PUBCHEM_BOND_DEF_STEREO_COUNT>
1

> <PUBCHEM_BOND_UDEF_STEREO_COUNT>
0

> <PUBCHEM_ISOTOPIC_ATOM_COUNT>
0

> <PUBCHEM_COMPONENT_COUNT>
1

> <PUBCHEM_CACTVS_TAUTO_COUNT>
-1

> <PUBCHEM_COORDINATE_TYPE>
1
5
255

> <PUBCHEM_BONDANNOTATIONS>
10  15  8
11  14  8
12  16  8
13  17  8
14  18  8
15  18  8
16  17  8
5  10  8
5  11  8
6  12  8
6  9  8
9  13  8

$$$$
5281222
  -OEChem-11282412102D

 32 33  0     0  0  0  0  0  0999 V2000
    2.5369   -0.9050    0.0000 O   0  0  0  0  0  0  0  0  0  0  0  0
    8.5991    1.5950    0.0000 O   0  0  0  0  0  0  0  0  0  0  0  0
    4.2690   -3.9050    0.0000 O   0  0  0  0  0  0  0  0  0  0  0  0
    8.5991    3.5950    0.0000 O   0  0  0  0  0  0  0  0  0  0  0  0
    3.4030    0.5950    0.0000 O   0  0  0  0  0  0  0  0  0  0  0  0
    4.2690   -0.9050    0.0000 C   0  0  0  0  0  0  0  0  0  0  0  0
    6.0010    2.0950    0.0000 C   0  0  0  0  0  0  0  0  0  0  0  0
    3.4030   -1.4050    0.0000 C   0  0  0  0  0  0  0  0  0  0  0  0
    4.2690    0.0950    0.0000 C   0  0  0  0  0  0  0  0  0  0  0  0
    5.1350    1.5950    0.0000 C   0  0  0  0  0  0  0  0  0  0  0  0
    5.1350   -1.4050    0.0000 C   0  0  0  0  0  0  0  0  0  0  0  0
    6.8671    1.5950    0.0000 C   0  0  0  0  0  0  0  0  0  0  0  0
    6.0010    3.0950    0.0000 C   0  0  0  0  0  0  0  0  0  0  0  0
    5.1350    0.5950    0.0000 C   0  0  0  0  0  0  0  0  0  0  0  0
    7.7331    2.0950    0.0000 C   0  0  0  0  0  0  0  0  0  0  0  0
    3.4030   -2.4050    0.0000 C   0  0  0  0  0  0  0  0  0  0  0  0
    5.1350   -2.4050    0.0000 C   0  0  0  0  0  0  0  0  0  0  0  0
    4.2690   -2.9050    0.0000 C   0  0  0  0  0  0  0  0  0  0  0  0
    7.7331    3.0950    0.0000 C   0  0  0  0  0  0  0  0  0  0  0  0
    6.8671    3.5950    0.0000 C   0  0  0  0  0  0  0  0  0  0  0  0
    4.5981    1.9050    0.0000 H   0  0  0  0  0  0  0  0  0  0  0  0
    5.6720   -1.0950    0.0000 H   0  0  0  0  0  0  0  0  0  0  0  0
    6.8671    0.9750    0.0000 H   0  0  0  0  0  0  0  0  0  0  0  0
    5.4641    3.4050    0.0000 H   0  0  0  0  0  0  0  0  0  0  0  0
    5.6720    0.2850    0.0000 H   0  0  0  0  0  0  0  0  0  0  0  0
    2.8660   -2.7150    0.0000 H   0  0  0  0  0  0  0  0  0  0  0  0
    5.6720   -2.7150    0.0000 H   0  0  0  0  0  0  0  0  0  0  0  0
    6.8671    4.2150    0.0000 H   0  0  0  0  0  0  0  0  0  0  0  0
    2.0000   -1.2150    0.0000 H   0  0  0  0  0  0  0  0  0  0  0  0
    9.1360    1.9050    0.0000 H   0  0  0  0  0  0  0  0  0  0  0  0
    4.8059   -4.2150    0.0000 H   0  0  0  0  0  0  0  0  0  0  0  0
    8.5991    4.2150    0.0000 H   0  0  0  0  0  0  0  0  0  0  0  0
  1  8  1  0  0  0  0
  1 29  1  0  0  0  0
  2 15  1  0  0  0  0
  2 30  1  0  0  0  0
  3 18  1  0  0  0  0
  3 31  1  0  0  0  0
  4 19  1  0  0  0  0
  4 32  1  0  0  0  0
  5  9  2  0  0  0  0
  6  8  2  0  0  0  0
  6  9  1  0  0  0  0
  6 11  1  0  0  0  0
  7 10  1  0  0  0  0
  7 12  2  0  0  0  0
  7 13  1  0  0  0  0
  8 16  1  0  0  0  0
  9 14  1  0  0  0  0
 10 14  2  0  0  0  0
 10 21  1  0  0  0  0
 11 17  2  0  0  0  0
 11 22  1  0  0  0  0
 12 15  1  0  0  0  0
 12 23  1  0  0  0  0
 13 20  2  0  0  0  0
 13 24  1  0  0  0  0
 14 25  1  0  0  0  0
 15 19  2  0  0  0  0
 16 18  2  0  0  0  0
 16 26  1  0  0  0  0
 17 18  1  0  0  0  0
 17 27  1  0  0  0  0
 19 20  1  0  0  0  0
 20 28  1  0  0  0  0
M  END
> <PUBCHEM_COMPOUND_CID>
5281222

> <PUBCHEM_COMPOUND_CANONICALIZED>
1

> <PUBCHEM_CACTVS_COMPLEXITY>
367

> <PUBCHEM_CACTVS_HBOND_ACCEPTOR>
5

> <PUBCHEM_CACTVS_HBOND_DONOR>
4

> <PUBCHEM_CACTVS_ROTATABLE_BOND>
3

> <PUBCHEM_CACTVS_SUBSKEYS>
AAADccBwOAAAAAAAAAAAAAAAAAAAAAAAAAAwYAAAAAAAAAABQAAAGgAACAAADASAmAAwBoAAAgCIAqBSAAACAAAkIAAIiAEGiMgJJzaCFRKAcUEl4BUJmYeI7LTOIAABCAAIQABAAAIQABCAAAAAAAAAAA==

> <PUBCHEM_IUPAC_OPENEYE_NAME>
(E)-1-(2,4-dihydroxyphenyl)-3-(3,4-dihydroxyphenyl)prop-2-en-1-one

> <PUBCHEM_IUPAC_CAS_NAME>
(E)-1-(2,4-dihydroxyphenyl)-3-(3,4-dihydroxyphenyl)-2-propen-1-one

> <PUBCHEM_IUPAC_NAME_MARKUP>
(<I>E</I>)-1-(2,4-dihydroxyphenyl)-3-(3,4-dihydroxyphenyl)prop-2-en-1-one

> <PUBCHEM_IUPAC_NAME>
(E)-1-(2,4-dihydroxyphenyl)-3-(3,4-dihydroxyphenyl)prop-2-en-1-one

> <PUBCHEM_IUPAC_SYSTEMATIC_NAME>
(E)-1-[2,4-bis(oxidanyl)phenyl]-3-[3,4-bis(oxidanyl)phenyl]prop-2-en-1-one

> <PUBCHEM_IUPAC_TRADITIONAL_NAME>
(E)-1-(2,4-dihydroxyphenyl)-3-(3,4-dihydroxyphenyl)prop-2-en-1-one

> <PUBCHEM_IUPAC_INCHI>
InChI=1S/C15H12O5/c16-10-3-4-11(14(19)8-10)12(17)5-1-9-2-6-13(18)15(20)7-9/h1-8,16,18-20H/b5-1+

> <PUBCHEM_IUPAC_INCHIKEY>
AYMYWHCQALZEGT-ORCRQEGFSA-N

> <PUBCHEM_XLOGP3_AA>
2.8

> <PUBCHEM_EXACT_MASS>
272.06847348

> <PUBCHEM_MOLECULAR_FORMULA>
C15H12O5

> <PUBCHEM_MOLECULAR_WEIGHT>
272.25

> <PUBCHEM_OPENEYE_CAN_SMILES>
C1=CC(=C(C=C1C=CC(=O)C2=C(C=C(C=C2)O)O)O)O

> <PUBCHEM_OPENEYE_ISO_SMILES>
C1=CC(=C(C=C1/C=C/C(=O)C2=C(C=C(C=C2)O)O)O)O

> <PUBCHEM_CACTVS_TPSA>
98

> <PUBCHEM_MONOISOTOPIC_WEIGHT>
272.06847348

> <PUBCHEM_TOTAL_CHARGE>
0

> <PUBCHEM_HEAVY_ATOM_COUNT>
20

> <PUBCHEM_ATOM_DEF_STEREO_COUNT>
0

> <PUBCHEM_ATOM_UDEF_STEREO_COUNT>
0

> <PUBCHEM_BOND_DEF_STEREO_COUNT>
1

> <PUBCHEM_BOND_UDEF_STEREO_COUNT>
0

> <PUBCHEM_ISOTOPIC_ATOM_COUNT>
0

> <PUBCHEM_COMPONENT_COUNT>
1

> <PUBCHEM_CACTVS_TAUTO_COUNT>
-1

> <PUBCHEM_COORDINATE_TYPE>
1
5
255

> <PUBCHEM_BONDANNOTATIONS>
11  17  8
12  15  8
13  20  8
15  19  8
16  18  8
17  18  8
19  20  8
6  11  8
6  8  8
7  12  8
7  13  8
8  16  8

$$$$
5329106
  -OEChem-11282412102D

 54 57  0     0  0  0  0  0  0999 V2000
    2.0000   -1.3289    0.0000 F   0  0  0  0  0  0  0  0  0  0  0  0
    8.5992    2.1328    0.0000 O   0  0  0  0  0  0  0  0  0  0  0  0
    7.1279   -2.3289    0.0000 O   0  0  0  0  0  0  0  0  0  0  0  0
   12.2029    2.2459    0.0000 N   0  0  0  0  0  0  0  0  0  0  0  0
    9.8843    0.9716    0.0000 N   0  0  0  0  0  0  0  0  0  0  0  0
    7.5754   -1.0378    0.0000 N   0  0  0  0  0  0  0  0  0  0  0  0
    5.5443   -3.1336    0.0000 N   0  0  0  0  0  0  0  0  0  0  0  0
   11.9967    3.2244    0.0000 C   0  0  0  0  0  0  0  0  0  0  0  0
   13.1973    2.1397    0.0000 C   0  0  0  0  0  0  0  0  0  0  0  0
   12.8636    3.7229    0.0000 C   0  0  0  0  0  0  0  0  0  0  0  0
   13.6056    3.0525    0.0000 C   0  0  0  0  0  0  0  0  0  0  0  0
   11.5325    1.5039    0.0000 C   0  0  0  0  0  0  0  0  0  0  0  0
   10.5547    1.7136    0.0000 C   0  0  0  0  0  0  0  0  0  0  0  0
    8.2361    0.4392    0.0000 C   0  0  0  0  0  0  0  0  0  0  0  0
    7.2418    0.5454    0.0000 C   0  0  0  0  0  0  0  0  0  0  0  0
    8.9065    1.1812    0.0000 C   0  0  0  0  0  0  0  0  0  0  0  0
    6.8335   -0.3674    0.0000 C   0  0  0  0  0  0  0  0  0  0  0  0
    8.4423   -0.5393    0.0000 C   0  0  0  0  0  0  0  0  0  0  0  0
    5.8550   -0.5736    0.0000 C   0  0  0  0  0  0  0  0  0  0  0  0
    5.5443   -1.5241    0.0000 C   0  0  0  0  0  0  0  0  0  0  0  0
    6.7433    1.4123    0.0000 C   0  0  0  0  0  0  0  0  0  0  0  0
    4.5981   -1.8289    0.0000 C   0  0  0  0  0  0  0  0  0  0  0  0
    9.3552   -0.9476    0.0000 C   0  0  0  0  0  0  0  0  0  0  0  0
    4.5981   -2.8289    0.0000 C   0  0  0  0  0  0  0  0  0  0  0  0
    6.1279   -2.3289    0.0000 C   0  0  0  0  0  0  0  0  0  0  0  0
    3.7320   -1.3289    0.0000 C   0  0  0  0  0  0  0  0  0  0  0  0
    3.7320   -3.3289    0.0000 C   0  0  0  0  0  0  0  0  0  0  0  0
    2.8660   -1.8289    0.0000 C   0  0  0  0  0  0  0  0  0  0  0  0
    2.8660   -2.8289    0.0000 C   0  0  0  0  0  0  0  0  0  0  0  0
   11.7455    3.7913    0.0000 H   0  0  0  0  0  0  0  0  0  0  0  0
   11.4067    3.0339    0.0000 H   0  0  0  0  0  0  0  0  0  0  0  0
   13.0673    1.5334    0.0000 H   0  0  0  0  0  0  0  0  0  0  0  0
   13.7866    1.9471    0.0000 H   0  0  0  0  0  0  0  0  0  0  0  0
   13.3251    4.1370    0.0000 H   0  0  0  0  0  0  0  0  0  0  0  0
   12.5001    4.2252    0.0000 H   0  0  0  0  0  0  0  0  0  0  0  0
   14.1420    2.7416    0.0000 H   0  0  0  0  0  0  0  0  0  0  0  0
   13.9709    3.5535    0.0000 H   0  0  0  0  0  0  0  0  0  0  0  0
   11.2993    0.9295    0.0000 H   0  0  0  0  0  0  0  0  0  0  0  0
   12.0577    1.1745    0.0000 H   0  0  0  0  0  0  0  0  0  0  0  0
   10.7880    2.2880    0.0000 H   0  0  0  0  0  0  0  0  0  0  0  0
   10.0295    2.0430    0.0000 H   0  0  0  0  0  0  0  0  0  0  0  0
   10.0749    0.3816    0.0000 H   0  0  0  0  0  0  0  0  0  0  0  0
    7.5096   -1.6543    0.0000 H   0  0  0  0  0  0  0  0  0  0  0  0
    5.4409   -0.1122    0.0000 H   0  0  0  0  0  0  0  0  0  0  0  0
    7.2808    1.7214    0.0000 H   0  0  0  0  0  0  0  0  0  0  0  0
    6.4342    1.9498    0.0000 H   0  0  0  0  0  0  0  0  0  0  0  0
    6.2058    1.1032    0.0000 H   0  0  0  0  0  0  0  0  0  0  0  0
    9.1020   -1.5136    0.0000 H   0  0  0  0  0  0  0  0  0  0  0  0
    9.9211   -1.2008    0.0000 H   0  0  0  0  0  0  0  0  0  0  0  0
    9.6083   -0.3817    0.0000 H   0  0  0  0  0  0  0  0  0  0  0  0
    5.7369   -3.7229    0.0000 H   0  0  0  0  0  0  0  0  0  0  0  0
    3.7320   -0.7089    0.0000 H   0  0  0  0  0  0  0  0  0  0  0  0
    3.7320   -3.9489    0.0000 H   0  0  0  0  0  0  0  0  0  0  0  0
    2.3291   -3.1389    0.0000 H   0  0  0  0  0  0  0  0  0  0  0  0
  1 28  1  0  0  0  0
  2 16  2  0  0  0  0
  3 25  2  0  0  0  0
  4  8  1  0  0  0  0
  4  9  1  0  0  0  0
  4 12  1  0  0  0  0
  5 13  1  0  0  0  0
  5 16  1  0  0  0  0
  5 42  1  0  0  0  0
  6 17  1  0  0  0  0
  6 18  1  0  0  0  0
  6 43  1  0  0  0  0
  7 24  1  0  0  0  0
  7 25  1  0  0  0  0
  7 51  1  0  0  0  0
  8 10  1  0  0  0  0
  8 30  1  0  0  0  0
  8 31  1  0  0  0  0
  9 11  1  0  0  0  0
  9 32  1  0  0  0  0
  9 33  1  0  0  0  0
 10 11  1  0  0  0  0
 10 34  1  0  0  0  0
 10 35  1  0  0  0  0
 11 36  1  0  0  0  0
 11 37  1  0  0  0  0
 12 13  1  0  0  0  0
 12 38  1  0  0  0  0
 12 39  1  0  0  0  0
 13 40  1  0  0  0  0
 13 41  1  0  0  0  0
 14 15  1  0  0  0  0
 14 16  1  0  0  0  0
 14 18  2  0  0  0  0
 15 17  2  0  0  0  0
 15 21  1  0  0  0  0
 17 19  1  0  0  0  0
 18 23  1  0  0  0  0
 19 20  2  0  0  0  0
 19 44  1  0  0  0  0
 20 22  1  0  0  0  0
 20 25  1  0  0  0  0
 21 45  1  0  0  0  0
 21 46  1  0  0  0  0
 21 47  1  0  0  0  0
 22 24  2  0  0  0  0
 22 26  1  0  0  0  0
 23 48  1  0  0  0  0
 23 49  1  0  0  0  0
 23 50  1  0  0  0  0
 24 27  1  0  0  0  0
 26 28  2  0  0  0  0
 26 52  1  0  0  0  0
 27 29  2  0  0  0  0
 27 53  1  0  0  0  0
 28 29  1  0  0  0  0
 29 54  1  0  0  0  0
M  END
> <PUBCHEM_COMPOUND_CID>
5329106

> <PUBCHEM_COMPOUND_CANONICALIZED>
1

> <PUBCHEM_CACTVS_COMPLEXITY>
663

> <PUBCHEM_CACTVS_HBOND_ACCEPTOR>
4

> <PUBCHEM_CACTVS_HBOND_DONOR>
3

> <PUBCHEM_CACTVS_ROTATABLE_BOND>
5

> <PUBCHEM_CACTVS_SUBSKEYS>
AAADceB7sQAAAAAAAAAAAAAAAAAAAWLFgAAwAAAAAAAAAFgBwAAAHwAQAAAADAjBngwywJPJkACoAyVyVACCgCAlAiAImaE4ZNgIYHrA1ZGUIYhglgDIyccciICOgAAAAAACAAAAAAAAAAQAAAAAAAAAAA==

> <PUBCHEM_IUPAC_OPENEYE_NAME>
5-[(Z)-(5-fluoro-2-oxo-indolin-3-ylidene)methyl]-2,4-dimethyl-N-(2-pyrrolidin-1-ylethyl)-1H-pyrrole-3-carboxamide

> <PUBCHEM_IUPAC_CAS_NAME>
5-[(Z)-(5-fluoro-2-oxo-1H-indol-3-ylidene)methyl]-2,4-dimethyl-N-[2-(1-pyrrolidinyl)ethyl]-1H-pyrrole-3-carboxamide

> <PUBCHEM_IUPAC_NAME_MARKUP>
5-[(<I>Z</I>)-(5-fluoro-2-oxo-1<I>H</I>-indol-3-ylidene)methyl]-2,4-dimethyl-<I>N</I>-(2-pyrrolidin-1-ylethyl)-1<I>H</I>-pyrrole-3-carboxamide

> <PUBCHEM_IUPAC_NAME>
5-[(Z)-(5-fluoro-2-oxo-1H-indol-3-ylidene)methyl]-2,4-dimethyl-N-(2-pyrrolidin-1-ylethyl)-1H-pyrrole-3-carboxamide

> <PUBCHEM_IUPAC_SYSTEMATIC_NAME>
5-[(Z)-(5-fluoranyl-2-oxidanylidene-1H-indol-3-ylidene)methyl]-2,4-dimethyl-N-(2-pyrrolidin-1-ylethyl)-1H-pyrrole-3-carboxamide

> <PUBCHEM_IUPAC_TRADITIONAL_NAME>
5-[(Z)-(5-fluoro-2-keto-indolin-3-ylidene)methyl]-2,4-dimethyl-N-(2-pyrrolidinoethyl)-1H-pyrrole-3-carboxamide

> <PUBCHEM_IUPAC_INCHI>
InChI=1S/C22H25FN4O2/c1-13-19(12-17-16-11-15(23)5-6-18(16)26-21(17)28)25-14(2)20(13)22(29)24-7-10-27-8-3-4-9-27/h5-6,11-12,25H,3-4,7-10H2,1-2H3,(H,24,29)(H,26,28)/b17-12-

> <PUBCHEM_IUPAC_INCHIKEY>
SRSGVKWWVXWSJT-ATVHPVEESA-N

> <PUBCHEM_XLOGP3_AA>
2.4

> <PUBCHEM_EXACT_MASS>
396.19615422

> <PUBCHEM_MOLECULAR_FORMULA>
C22H25FN4O2

> <PUBCHEM_MOLECULAR_WEIGHT>
396.5

> <PUBCHEM_OPENEYE_CAN_SMILES>
CC1=C(NC(=C1C(=O)NCCN2CCCC2)C)C=C3C4=C(C=CC(=C4)F)NC3=O

> <PUBCHEM_OPENEYE_ISO_SMILES>
CC1=C(NC(=C1C(=O)NCCN2CCCC2)C)/C=C\3/C4=C(C=CC(=C4)F)NC3=O

> <PUBCHEM_CACTVS_TPSA>
77.2

> <PUBCHEM_MONOISOTOPIC_WEIGHT>
396.19615422

> <PUBCHEM_TOTAL_CHARGE>
0

> <PUBCHEM_HEAVY_ATOM_COUNT>
29

> <PUBCHEM_ATOM_DEF_STEREO_COUNT>
0

> <PUBCHEM_ATOM_UDEF_STEREO_COUNT>
0

> <PUBCHEM_BOND_DEF_STEREO_COUNT>
1

> <PUBCHEM_BOND_UDEF_STEREO_COUNT>
0

> <PUBCHEM_ISOTOPIC_ATOM_COUNT>
0

> <PUBCHEM_COMPONENT_COUNT>
1

> <PUBCHEM_CACTVS_TAUTO_COUNT>
-1

> <PUBCHEM_COORDINATE_TYPE>
1
5
255

> <PUBCHEM_BONDANNOTATIONS>
14  15  8
14  18  8
15  17  8
22  24  8
22  26  8
24  27  8
26  28  8
27  29  8
28  29  8
6  17  8
6  18  8

$$$$
5926218
  -OEChem-11282412102D

 26 27  0     0  0  0  0  0  0999 V2000
    2.0000   -3.2500    0.0000 Cl  0  0  0  0  0  0  0  0  0  0  0  0
    5.4641   -3.2500    0.0000 Cl  0  0  0  0  0  0  0  0  0  0  0  0
    3.7320    2.7500    0.0000 N   0  0  0  0  0  0  0  0  0  0  0  0
    6.3301   -0.7500    0.0000 N   0  0  0  0  0  0  0  0  0  0  0  0
    3.7320   -1.2500    0.0000 C   0  0  0  0  0  0  0  0  0  0  0  0
    3.7320   -0.2500    0.0000 C   0  0  0  0  0  0  0  0  0  0  0  0
    4.5981    1.2500    0.0000 C   0  0  0  0  0  0  0  0  0  0  0  0
    4.5981    0.2500    0.0000 C   0  0  0  0  0  0  0  0  0  0  0  0
    4.5981   -1.7500    0.0000 C   0  0  0  0  0  0  0  0  0  0  0  0
    2.8660   -1.7500    0.0000 C   0  0  0  0  0  0  0  0  0  0  0  0
    2.8660   -2.7500    0.0000 C   0  0  0  0  0  0  0  0  0  0  0  0
    4.5981   -2.7500    0.0000 C   0  0  0  0  0  0  0  0  0  0  0  0
    5.4641    1.7500    0.0000 C   0  0  0  0  0  0  0  0  0  0  0  0
    3.7320   -3.2500    0.0000 C   0  0  0  0  0  0  0  0  0  0  0  0
    3.7320    1.7500    0.0000 C   0  0  0  0  0  0  0  0  0  0  0  0
    5.4641    2.7500    0.0000 C   0  0  0  0  0  0  0  0  0  0  0  0
    4.5981    3.2500    0.0000 C   0  0  0  0  0  0  0  0  0  0  0  0
    5.4641   -0.2500    0.0000 C   0  0  0  0  0  0  0  0  0  0  0  0
    3.1951    0.0600    0.0000 H   0  0  0  0  0  0  0  0  0  0  0  0
    5.1350   -1.4400    0.0000 H   0  0  0  0  0  0  0  0  0  0  0  0
    2.3291   -1.4400    0.0000 H   0  0  0  0  0  0  0  0  0  0  0  0
    6.0010    1.4400    0.0000 H   0  0  0  0  0  0  0  0  0  0  0  0
    3.7320   -3.8700    0.0000 H   0  0  0  0  0  0  0  0  0  0  0  0
    3.1951    1.4400    0.0000 H   0  0  0  0  0  0  0  0  0  0  0  0
    6.0010    3.0600    0.0000 H   0  0  0  0  0  0  0  0  0  0  0  0
    4.5981    3.8700    0.0000 H   0  0  0  0  0  0  0  0  0  0  0  0
  1 11  1  0  0  0  0
  2 12  1  0  0  0  0
  3 15  1  0  0  0  0
  3 17  2  0  0  0  0
  4 18  3  0  0  0  0
  5  6  1  0  0  0  0
  5  9  2  0  0  0  0
  5 10  1  0  0  0  0
  6  8  2  0  0  0  0
  6 19  1  0  0  0  0
  7  8  1  0  0  0  0
  7 13  1  0  0  0  0
  7 15  2  0  0  0  0
  8 18  1  0  0  0  0
  9 12  1  0  0  0  0
  9 20  1  0  0  0  0
 10 11  2  0  0  0  0
 10 21  1  0  0  0  0
 11 14  1  0  0  0  0
 12 14  2  0  0  0  0
 13 16  2  0  0  0  0
 13 22  1  0  0  0  0
 14 23  1  0  0  0  0
 15 24  1  0  0  0  0
 16 17  1  0  0  0  0
 16 25  1  0  0  0  0
 17 26  1  0  0  0  0
M  END
> <PUBCHEM_COMPOUND_CID>
5926218

> <PUBCHEM_COMPOUND_CANONICALIZED>
1

> <PUBCHEM_CACTVS_COMPLEXITY>
348

> <PUBCHEM_CACTVS_HBOND_ACCEPTOR>
2

> <PUBCHEM_CACTVS_HBOND_DONOR>
0

> <PUBCHEM_CACTVS_ROTATABLE_BOND>
2

> <PUBCHEM_CACTVS_SUBSKEYS>
AAADccBzAAAGAAAAAAAAAAAAAAAAAAAAAAA8QAAAAAAAAAABwAAAHAIAAAAADALBGiQ8gJIIEACwBjBnRACigCAxByAI2CA4ZpgIoOLBk5GEIAhggADIyA8QgAAOAAAAIACAAAAAAABAAQAAAAAAAAAAAA==

> <PUBCHEM_IUPAC_OPENEYE_NAME>
(Z)-3-(3,5-dichlorophenyl)-2-(3-pyridyl)prop-2-enenitrile

> <PUBCHEM_IUPAC_CAS_NAME>
(Z)-3-(3,5-dichlorophenyl)-2-(3-pyridinyl)-2-propenenitrile

> <PUBCHEM_IUPAC_NAME_MARKUP>
(<I>Z</I>)-3-(3,5-dichlorophenyl)-2-pyridin-3-ylprop-2-enenitrile

> <PUBCHEM_IUPAC_NAME>
(Z)-3-(3,5-dichlorophenyl)-2-pyridin-3-ylprop-2-enenitrile

> <PUBCHEM_IUPAC_SYSTEMATIC_NAME>
(Z)-3-[3,5-bis(chloranyl)phenyl]-2-pyridin-3-yl-prop-2-enenitrile

> <PUBCHEM_IUPAC_TRADITIONAL_NAME>
(Z)-3-(3,5-dichlorophenyl)-2-(3-pyridyl)acrylonitrile

> <PUBCHEM_IUPAC_INCHI>
InChI=1S/C14H8Cl2N2/c15-13-5-10(6-14(16)7-13)4-12(8-17)11-2-1-3-18-9-11/h1-7,9H/b12-4+

> <PUBCHEM_IUPAC_INCHIKEY>
TYXIVBJQPBWBHO-UUILKARUSA-N

> <PUBCHEM_XLOGP3_AA>
3.9

> <PUBCHEM_EXACT_MASS>
274.0064537

> <PUBCHEM_MOLECULAR_FORMULA>
C14H8Cl2N2

> <PUBCHEM_MOLECULAR_WEIGHT>
275.1

> <PUBCHEM_OPENEYE_CAN_SMILES>
C1=CC(=CN=C1)C(=CC2=CC(=CC(=C2)Cl)Cl)C#N

> <PUBCHEM_OPENEYE_ISO_SMILES>
C1=CC(=CN=C1)/C(=C/C2=CC(=CC(=C2)Cl)Cl)/C#N

> <PUBCHEM_CACTVS_TPSA>
36.7

> <PUBCHEM_MONOISOTOPIC_WEIGHT>
274.0064537

> <PUBCHEM_TOTAL_CHARGE>
0

> <PUBCHEM_HEAVY_ATOM_COUNT>
18

> <PUBCHEM_ATOM_DEF_STEREO_COUNT>
0

> <PUBCHEM_ATOM_UDEF_STEREO_COUNT>
0

> <PUBCHEM_BOND_DEF_STEREO_COUNT>
1

> <PUBCHEM_BOND_UDEF_STEREO_COUNT>
0

> <PUBCHEM_ISOTOPIC_ATOM_COUNT>
0

> <PUBCHEM_COMPONENT_COUNT>
1

> <PUBCHEM_CACTVS_TAUTO_COUNT>
-1

> <PUBCHEM_COORDINATE_TYPE>
1
5
255

> <PUBCHEM_BONDANNOTATIONS>
10  11  8
11  14  8
12  14  8
13  16  8
16  17  8
3  15  8
3  17  8
5  10  8
5  9  8
7  13  8
7  15  8
9  12  8

$$$$
9831755
  -OEChem-11282412102D

 92 97  0     1  0  0  0  0  0999 V2000
    8.6486    0.0000    0.0000 Cl  0  0  0  0  0  0  0  0  0  0  0  0
    8.6486    2.6990    0.0000 Cl  0  0  0  0  0  0  0  0  0  0  0  0
   10.7719   12.0025    0.0000 O   0  0  0  0  0  0  0  0  0  0  0  0
    8.9997    8.5506    0.0000 O   0  0  0  0  0  0  0  0  0  0  0  0
    7.1726    9.7262    0.0000 O   0  0  0  0  0  0  0  0  0  0  0  0
   16.0471   10.3033    0.0000 O   0  0  0  0  0  0  0  0  0  0  0  0
    6.1546    8.3249    0.0000 O   0  0  0  0  0  0  0  0  0  0  0  0
    2.7094    8.6870    0.0000 O   0  0  0  0  0  0  0  0  0  0  0  0
   11.3699    9.0379    0.0000 N   0  0  0  0  0  0  0  0  0  0  0  0
   12.0540   10.9173    0.0000 N   0  0  0  0  0  0  0  0  0  0  0  0
   15.7146    8.5208    0.0000 N   0  0  0  0  0  0  0  0  0  0  0  0
    3.7275   10.0883    0.0000 N   0  0  0  0  0  0  0  0  0  0  0  0
    1.0914    9.8626    0.0000 N   0  0  0  0  0  0  0  0  0  0  0  0
    0.7005   14.4285    0.0000 N   0  0  0  0  0  0  0  0  0  0  0  0
   10.2941   10.0540    0.0000 C   0  0  2  0  0  0  0  0  0  0  0  0
    8.8952    9.5451    0.0000 C   0  0  1  0  0  0  0  0  0  0  0  0
   10.0353   11.0199    0.0000 C   0  0  1  0  0  0  0  0  0  0  0  0
    8.6364   10.5111    0.0000 C   0  0  0  0  0  0  0  0  0  0  0  0
   12.3548    9.2116    0.0000 C   0  0  0  0  0  0  0  0  0  0  0  0
   12.6968   10.1513    0.0000 C   0  0  0  0  0  0  0  0  0  0  0  0
    7.9817    9.1384    0.0000 C   0  0  0  0  0  0  0  0  0  0  0  0
   10.5530    9.0880    0.0000 C   0  0  0  0  0  0  0  0  0  0  0  0
   13.0119    8.4034    0.0000 C   0  0  0  0  0  0  0  0  0  0  0  0
   11.3969    8.0445    0.0000 C   0  0  0  0  0  0  0  0  0  0  0  0
   13.7197   10.3479    0.0000 C   0  0  0  0  0  0  0  0  0  0  0  0
   12.7132   11.6610    0.0000 C   0  0  0  0  0  0  0  0  0  0  0  0
   12.3239    7.6862    0.0000 C   0  0  0  0  0  0  0  0  0  0  0  0
   14.0391    8.5764    0.0000 C   0  0  0  0  0  0  0  0  0  0  0  0
   13.6536   11.3395    0.0000 C   0  0  0  0  0  0  0  0  0  0  0  0
   14.3953    9.5552    0.0000 C   0  0  0  0  0  0  0  0  0  0  0  0
   14.8567    7.9410    0.0000 C   0  0  0  0  0  0  0  0  0  0  0  0
   10.5810    7.4073    0.0000 C   0  0  0  0  0  0  0  0  0  0  0  0
   15.4301    9.5163    0.0000 C   0  0  0  0  0  0  0  0  0  0  0  0
   12.4978   12.6735    0.0000 C   0  0  0  0  0  0  0  0  0  0  0  0
   12.4993    6.6660    0.0000 C   0  0  0  0  0  0  0  0  0  0  0  0
    8.1907    7.9628    0.0000 C   0  0  0  0  0  0  0  0  0  0  0  0
   14.4438   12.0083    0.0000 C   0  0  0  0  0  0  0  0  0  0  0  0
   10.7328    6.3833    0.0000 C   0  0  0  0  0  0  0  0  0  0  0  0
   11.6984    6.0102    0.0000 C   0  0  0  0  0  0  0  0  0  0  0  0
   13.2723   13.3604    0.0000 C   0  0  0  0  0  0  0  0  0  0  0  0
   14.2518   13.0256    0.0000 C   0  0  0  0  0  0  0  0  0  0  0  0
    6.2591    9.3194    0.0000 C   0  0  0  0  0  0  0  0  0  0  0  0
    5.4501    9.9072    0.0000 C   0  0  0  0  0  0  0  0  0  0  0  0
    4.5365    9.5005    0.0000 C   0  0  0  0  0  0  0  0  0  0  0  0
    2.8140    9.6816    0.0000 C   0  0  0  0  0  0  0  0  0  0  0  0
    2.0050   10.2693    0.0000 C   0  0  2  0  0  0  0  0  0  0  0  0
    2.1095   11.2639    0.0000 C   0  0  0  0  0  0  0  0  0  0  0  0
    1.3005   11.8516    0.0000 C   0  0  0  0  0  0  0  0  0  0  0  0
    1.4050   12.8462    0.0000 C   0  0  0  0  0  0  0  0  0  0  0  0
    0.5960   13.4339    0.0000 C   0  0  0  0  0  0  0  0  0  0  0  0
    9.8153   11.8409    0.0000 H   0  0  0  0  0  0  0  0  0  0  0  0
    8.0424   10.3333    0.0000 H   0  0  0  0  0  0  0  0  0  0  0  0
    8.4415   11.0996    0.0000 H   0  0  0  0  0  0  0  0  0  0  0  0
    8.3284    8.6244    0.0000 H   0  0  0  0  0  0  0  0  0  0  0  0
    7.5357    8.7077    0.0000 H   0  0  0  0  0  0  0  0  0  0  0  0
   11.1518    9.2485    0.0000 H   0  0  0  0  0  0  0  0  0  0  0  0
   10.7134    8.4892    0.0000 H   0  0  0  0  0  0  0  0  0  0  0  0
    9.9541    8.9276    0.0000 H   0  0  0  0  0  0  0  0  0  0  0  0
   15.2559    7.4666    0.0000 H   0  0  0  0  0  0  0  0  0  0  0  0
   14.4269    7.4941    0.0000 H   0  0  0  0  0  0  0  0  0  0  0  0
   10.0053    7.6375    0.0000 H   0  0  0  0  0  0  0  0  0  0  0  0
   11.9088   12.8673    0.0000 H   0  0  0  0  0  0  0  0  0  0  0  0
   13.0802    6.4492    0.0000 H   0  0  0  0  0  0  0  0  0  0  0  0
    8.5552    7.4612    0.0000 H   0  0  0  0  0  0  0  0  0  0  0  0
    7.6891    7.5984    0.0000 H   0  0  0  0  0  0  0  0  0  0  0  0
    7.8263    8.4644    0.0000 H   0  0  0  0  0  0  0  0  0  0  0  0
   15.0281   11.8010    0.0000 H   0  0  0  0  0  0  0  0  0  0  0  0
   16.2972    8.3087    0.0000 H   0  0  0  0  0  0  0  0  0  0  0  0
   10.2486    5.9961    0.0000 H   0  0  0  0  0  0  0  0  0  0  0  0
   11.7964    5.3979    0.0000 H   0  0  0  0  0  0  0  0  0  0  0  0
   13.1503   13.9683    0.0000 H   0  0  0  0  0  0  0  0  0  0  0  0
   14.7204   13.4316    0.0000 H   0  0  0  0  0  0  0  0  0  0  0  0
    5.1034   10.4212    0.0000 H   0  0  0  0  0  0  0  0  0  0  0  0
    5.8961   10.3379    0.0000 H   0  0  0  0  0  0  0  0  0  0  0  0
    4.8832    8.9865    0.0000 H   0  0  0  0  0  0  0  0  0  0  0  0
    4.0906    9.0698    0.0000 H   0  0  0  0  0  0  0  0  0  0  0  0
    3.7923   10.7049    0.0000 H   0  0  0  0  0  0  0  0  0  0  0  0
    1.5034   10.6338    0.0000 H   0  0  0  0  0  0  0  0  0  0  0  0
    2.3813   11.8211    0.0000 H   0  0  0  0  0  0  0  0  0  0  0  0
    2.7055   11.0930    0.0000 H   0  0  0  0  0  0  0  0  0  0  0  0
    1.0287   11.2944    0.0000 H   0  0  0  0  0  0  0  0  0  0  0  0
    0.7045   12.0225    0.0000 H   0  0  0  0  0  0  0  0  0  0  0  0
    0.5898   10.2270    0.0000 H   0  0  0  0  0  0  0  0  0  0  0  0
    1.0266    9.2460    0.0000 H   0  0  0  0  0  0  0  0  0  0  0  0
    1.6768   13.4034    0.0000 H   0  0  0  0  0  0  0  0  0  0  0  0
    2.0010   12.6753    0.0000 H   0  0  0  0  0  0  0  0  0  0  0  0
    0.3242   12.8767    0.0000 H   0  0  0  0  0  0  0  0  0  0  0  0
    0.0000   13.6048    0.0000 H   0  0  0  0  0  0  0  0  0  0  0  0
    0.1989   14.7929    0.0000 H   0  0  0  0  0  0  0  0  0  0  0  0
    1.2669   14.6806    0.0000 H   0  0  0  0  0  0  0  0  0  0  0  0
    7.6486    0.0000    0.0000 H   0  0  0  0  0  0  0  0  0  0  0  0
    7.6486    2.6990    0.0000 H   0  0  0  0  0  0  0  0  0  0  0  0
  1 91  1  0  0  0  0
  2 92  1  0  0  0  0
  3 15  1  0  0  0  0
  3 17  1  0  0  0  0
 16  4  1  6  0  0  0
  4 36  1  0  0  0  0
  5 21  1  0  0  0  0
  5 42  1  0  0  0  0
  6 33  2  0  0  0  0
  7 42  2  0  0  0  0
  8 45  2  0  0  0  0
  9 15  1  0  0  0  0
  9 19  1  0  0  0  0
  9 24  1  0  0  0  0
 10 17  1  0  0  0  0
 10 20  1  0  0  0  0
 10 26  1  0  0  0  0
 11 31  1  0  0  0  0
 11 33  1  0  0  0  0
 11 68  1  0  0  0  0
 12 44  1  0  0  0  0
 12 45  1  0  0  0  0
 12 77  1  0  0  0  0
 46 13  1  1  0  0  0
 13 83  1  0  0  0  0
 13 84  1  0  0  0  0
 14 50  1  0  0  0  0
 14 89  1  0  0  0  0
 14 90  1  0  0  0  0
 15 16  1  0  0  0  0
 15 22  1  1  0  0  0
 16 18  1  0  0  0  0
 16 21  1  0  0  0  0
 17 18  1  0  0  0  0
 17 51  1  6  0  0  0
 18 52  1  0  0  0  0
 18 53  1  0  0  0  0
 19 20  2  0  0  0  0
 19 23  1  0  0  0  0
 20 25  1  0  0  0  0
 21 54  1  0  0  0  0
 21 55  1  0  0  0  0
 22 56  1  0  0  0  0
 22 57  1  0  0  0  0
 22 58  1  0  0  0  0
 23 27  1  0  0  0  0
 23 28  2  0  0  0  0
 24 27  1  0  0  0  0
 24 32  2  0  0  0  0
 25 29  1  0  0  0  0
 25 30  2  0  0  0  0
 26 29  1  0  0  0  0
 26 34  2  0  0  0  0
 27 35  2  0  0  0  0
 28 30  1  0  0  0  0
 28 31  1  0  0  0  0
 29 37  2  0  0  0  0
 30 33  1  0  0  0  0
 31 59  1  0  0  0  0
 31 60  1  0  0  0  0
 32 38  1  0  0  0  0
 32 61  1  0  0  0  0
 34 40  1  0  0  0  0
 34 62  1  0  0  0  0
 35 39  1  0  0  0  0
 35 63  1  0  0  0  0
 36 64  1  0  0  0  0
 36 65  1  0  0  0  0
 36 66  1  0  0  0  0
 37 41  1  0  0  0  0
 37 67  1  0  0  0  0
 38 39  2  0  0  0  0
 38 69  1  0  0  0  0
 39 70  1  0  0  0  0
 40 41  2  0  0  0  0
 40 71  1  0  0  0  0
 41 72  1  0  0  0  0
 42 43  1  0  0  0  0
 43 44  1  0  0  0  0
 43 73  1  0  0  0  0
 43 74  1  0  0  0  0
 44 75  1  0  0  0  0
 44 76  1  0  0  0  0
 45 46  1  0  0  0  0
 46 47  1  0  0  0  0
 46 78  1  0  0  0  0
 47 48  1  0  0  0  0
 47 79  1  0  0  0  0
 47 80  1  0  0  0  0
 48 49  1  0  0  0  0
 48 81  1  0  0  0  0
 48 82  1  0  0  0  0
 49 50  1  0  0  0  0
 49 85  1  0  0  0  0
 49 86  1  0  0  0  0
 50 87  1  0  0  0  0
 50 88  1  0  0  0  0
M  END
> <PUBCHEM_COMPOUND_CID>
9831755

> <PUBCHEM_COMPOUND_CANONICALIZED>
1

> <PUBCHEM_CACTVS_COMPLEXITY>
1270

> <PUBCHEM_CACTVS_HBOND_ACCEPTOR>
8

> <PUBCHEM_CACTVS_HBOND_DONOR>
6

> <PUBCHEM_CACTVS_ROTATABLE_BOND>
12

> <PUBCHEM_CACTVS_SUBSKEYS>
AAADcfB/uAAGAAAAAAAAAAAAAAAAAWLFiQAwYMAABYAWAFix/gAAHgAQAAAADGzhngYyyPPMFACoAyXyXACCgCQlEiAI2KG4dNgLYPrAlZGfIQhnlgDayQf8icCeyAACQAASACCQAASAACQAQAAAAAAAAA==

> <PUBCHEM_IUPAC_OPENEYE_NAME>
[(15S,16S,18R)-16-methoxy-15-methyl-3-oxo-28-oxa-4,14,19-triazaoctacyclo[12.11.2.115,18.02,6.07,27.08,13.019,26.020,25]octacosa-1,6,8,10,12,20,22,24,26-nonaen-16-yl]methyl 3-[[(2S)-2,6-diaminohexanoyl]amino]propanoate;dihydrochloride

> <PUBCHEM_IUPAC_CAS_NAME>
3-[[(2S)-2,6-diamino-1-oxohexyl]amino]propanoic acid [(15S,16S,18R)-16-methoxy-15-methyl-3-oxo-28-oxa-4,14,19-triazaoctacyclo[12.11.2.115,18.02,6.07,27.08,13.019,26.020,25]octacosa-1,6,8,10,12,20,22,24,26-nonaen-16-yl]methyl ester;dihydrochloride

> <PUBCHEM_IUPAC_NAME_MARKUP>
[(15<I>S</I>,16<I>S</I>,18<I>R</I>)-16-methoxy-15-methyl-3-oxo-28-oxa-4,14,19-triazaoctacyclo[12.11.2.1<SUP>15,18</SUP>.0<SUP>2,6</SUP>.0<SUP>7,27</SUP>.0<SUP>8,13</SUP>.0<SUP>19,26</SUP>.0<SUP>20,25</SUP>]octacosa-1,6,8,10,12,20,22,24,26-nonaen-16-yl]methyl 3-[[(2<I>S</I>)-2,6-diaminohexanoyl]amino]propanoate;dihydrochloride

> <PUBCHEM_IUPAC_NAME>
[(15S,16S,18R)-16-methoxy-15-methyl-3-oxo-28-oxa-4,14,19-triazaoctacyclo[12.11.2.115,18.02,6.07,27.08,13.019,26.020,25]octacosa-1,6,8,10,12,20,22,24,26-nonaen-16-yl]methyl 3-[[(2S)-2,6-diaminohexanoyl]amino]propanoate;dihydrochloride

> <PUBCHEM_IUPAC_SYSTEMATIC_NAME>
[(15S,16S,18R)-16-methoxy-15-methyl-3-oxidanylidene-28-oxa-4,14,19-triazaoctacyclo[12.11.2.115,18.02,6.07,27.08,13.019,26.020,25]octacosa-1,6,8,10,12,20,22,24,26-nonaen-16-yl]methyl 3-[[(2S)-2,6-bis(azanyl)hexanoyl]amino]propanoate;dihydrochloride

> <PUBCHEM_IUPAC_TRADITIONAL_NAME>
3-[[(2S)-2,6-diaminohexanoyl]amino]propionic acid [(15S,16S,18R)-3-keto-16-methoxy-15-methyl-28-oxa-4,14,19-triazaoctacyclo[12.11.2.115,18.02,6.07,27.08,13.019,26.020,25]octacosa-1,6,8,10,12,20,22,24,26-nonaen-16-yl]methyl ester;dihydrochloride

> <PUBCHEM_IUPAC_INCHI>
InChI=1S/C36H40N6O6.2ClH/c1-35-36(46-2,19-47-27(43)14-16-39-33(44)23(38)11-7-8-15-37)17-26(48-35)41-24-12-5-3-9-20(24)29-30-22(18-40-34(30)45)28-21-10-4-6-13-25(21)42(35)32(28)31(29)41;;/h3-6,9-10,12-13,23,26H,7-8,11,14-19,37-38H2,1-2H3,(H,39,44)(H,40,45);2*1H/t23-,26+,35-,36-;;/m0../s1

> <PUBCHEM_IUPAC_INCHIKEY>
PBEVPBFDKPJIOM-HQKLUXGTSA-N

> <PUBCHEM_EXACT_MASS>
724.2542885

> <PUBCHEM_MOLECULAR_FORMULA>
C36H42Cl2N6O6

> <PUBCHEM_MOLECULAR_WEIGHT>
725.7

> <PUBCHEM_OPENEYE_CAN_SMILES>
CC12C(CC(O1)N3C4=CC=CC=C4C5=C6C(=C7C8=CC=CC=C8N2C7=C53)CNC6=O)(COC(=O)CCNC(=O)C(CCCCN)N)OC.Cl.Cl

> <PUBCHEM_OPENEYE_ISO_SMILES>
C[C@@]12[C@](C[C@@H](O1)N3C4=CC=CC=C4C5=C6C(=C7C8=CC=CC=C8N2C7=C53)CNC6=O)(COC(=O)CCNC(=O)[C@H](CCCCN)N)OC.Cl.Cl

> <PUBCHEM_CACTVS_TPSA>
165

> <PUBCHEM_MONOISOTOPIC_WEIGHT>
724.2542885

> <PUBCHEM_TOTAL_CHARGE>
0

> <PUBCHEM_HEAVY_ATOM_COUNT>
50

> <PUBCHEM_ATOM_DEF_STEREO_COUNT>
4

> <PUBCHEM_ATOM_UDEF_STEREO_COUNT>
0

> <PUBCHEM_BOND_DEF_STEREO_COUNT>
0

> <PUBCHEM_BOND_UDEF_STEREO_COUNT>
0

> <PUBCHEM_ISOTOPIC_ATOM_COUNT>
0

> <PUBCHEM_COMPONENT_COUNT>
3

> <PUBCHEM_CACTVS_TAUTO_COUNT>
4

> <PUBCHEM_COORDINATE_TYPE>
1
5
255

> <PUBCHEM_BONDANNOTATIONS>
10  20  8
10  26  8
46  13  5
15  22  5
17  51  6
19  20  8
19  23  8
20  25  8
23  27  8
23  28  8
24  27  8
24  32  8
25  29  8
25  30  8
26  29  8
26  34  8
27  35  8
28  30  8
29  37  8
32  38  8
34  40  8
35  39  8
37  41  8
38  39  8
16  4  6
40  41  8
9  19  8
9  24  8

$$$$
24828759
  -OEChem-11282412102D

 84 79  0     0  0  0  0  0  0999 V2000
   15.8154    1.5000    0.0000 P   0  0  0  0  0  0  0  0  0  0  0  0
   16.6814    0.0000    0.0000 Na  0  3  0  0  0  0  0  0  0  0  0  0
   17.3154    2.3660    0.0000 Na  0  3  0  0  0  0  0  0  0  0  0  0
   11.4115    5.9758    0.0000 F   0  0  0  0  0  0  0  0  0  0  0  0
   14.9494    6.0000    0.0000 O   0  0  0  0  0  0  0  0  0  0  0  0
   16.6814    4.0000    0.0000 O   0  0  0  0  0  0  0  0  0  0  0  0
   15.8154    2.5000    0.0000 O   0  0  0  0  0  0  0  0  0  0  0  0
   15.8154    0.5000    0.0000 O   0  5  0  0  0  0  0  0  0  0  0  0
   16.8154    1.5000    0.0000 O   0  5  0  0  0  0  0  0  0  0  0  0
   14.8154    1.5000    0.0000 O   0  0  0  0  0  0  0  0  0  0  0  0
    6.2116    6.9558    0.0000 O   0  0  0  0  0  0  0  0  0  0  0  0
    4.4911    3.9492    0.0000 O   0  0  0  0  0  0  0  0  0  0  0  0
    4.4834    5.9491    0.0000 O   0  0  0  0  0  0  0  0  0  0  0  0
   10.2595   15.0245    0.0000 O   0  0  0  0  0  0  0  0  0  0  0  0
    0.5369    7.5122    0.0000 O   0  0  0  0  0  0  0  0  0  0  0  0
    0.5369   10.0243    0.0000 O   0  0  0  0  0  0  0  0  0  0  0  0
   10.2595   10.0003    0.0000 O   0  0  0  0  0  0  0  0  0  0  0  0
   10.2595   12.5124    0.0000 O   0  0  0  0  0  0  0  0  0  0  0  0
   10.2595   17.5366    0.0000 O   0  0  0  0  0  0  0  0  0  0  0  0
   14.9494    4.0000    0.0000 N   0  0  0  0  0  0  0  0  0  0  0  0
   13.1894    3.9653    0.0000 N   0  0  0  0  0  0  0  0  0  0  0  0
   11.4192    3.9758    0.0000 N   0  0  0  0  0  0  0  0  0  0  0  0
    9.6872    3.9692    0.0000 N   0  0  0  0  0  0  0  0  0  0  0  0
    7.9552    3.9625    0.0000 N   0  0  0  0  0  0  0  0  0  0  0  0
    8.8154    5.4658    0.0000 N   0  0  0  0  0  0  0  0  0  0  0  0
   15.8154    5.5000    0.0000 C   0  0  0  0  0  0  0  0  0  0  0  0
   15.8154    4.5000    0.0000 C   0  0  0  0  0  0  0  0  0  0  0  0
   16.8154    5.5000    0.0000 C   0  0  0  0  0  0  0  0  0  0  0  0
   16.3154    6.3660    0.0000 C   0  0  0  0  0  0  0  0  0  0  0  0
   14.0833    4.5000    0.0000 C   0  0  0  0  0  0  0  0  0  0  0  0
   14.0833    5.5000    0.0000 C   0  0  0  0  0  0  0  0  0  0  0  0
   14.9494    3.0000    0.0000 C   0  0  0  0  0  0  0  0  0  0  0  0
   13.1894    6.0347    0.0000 C   0  0  0  0  0  0  0  0  0  0  0  0
   12.2833    4.4792    0.0000 C   0  0  0  0  0  0  0  0  0  0  0  0
   12.2833    5.5208    0.0000 C   0  0  0  0  0  0  0  0  0  0  0  0
   10.5513    4.4725    0.0000 C   0  0  0  0  0  0  0  0  0  0  0  0
   10.5474    5.4725    0.0000 C   0  0  0  0  0  0  0  0  0  0  0  0
    8.8193    4.4658    0.0000 C   0  0  0  0  0  0  0  0  0  0  0  0
    9.6795    5.9692    0.0000 C   0  0  0  0  0  0  0  0  0  0  0  0
    7.0872    4.4592    0.0000 C   0  0  0  0  0  0  0  0  0  0  0  0
    6.2231    3.9558    0.0000 C   0  0  0  0  0  0  0  0  0  0  0  0
    7.0834    5.4592    0.0000 C   0  0  0  0  0  0  0  0  0  0  0  0
    6.2154    5.9558    0.0000 C   0  0  0  0  0  0  0  0  0  0  0  0
    5.3552    4.4525    0.0000 C   0  0  0  0  0  0  0  0  0  0  0  0
    5.3513    5.4525    0.0000 C   0  0  0  0  0  0  0  0  0  0  0  0
    5.3436    7.4525    0.0000 C   0  0  0  0  0  0  0  0  0  0  0  0
    4.4950    2.9492    0.0000 C   0  0  0  0  0  0  0  0  0  0  0  0
    3.6193    5.4458    0.0000 C   0  0  0  0  0  0  0  0  0  0  0  0
   16.8154    4.8800    0.0000 H   0  0  0  0  0  0  0  0  0  0  0  0
   17.4354    5.5000    0.0000 H   0  0  0  0  0  0  0  0  0  0  0  0
   16.8154    6.1200    0.0000 H   0  0  0  0  0  0  0  0  0  0  0  0
   16.8523    6.0560    0.0000 H   0  0  0  0  0  0  0  0  0  0  0  0
   16.6254    6.9030    0.0000 H   0  0  0  0  0  0  0  0  0  0  0  0
   15.7785    6.6760    0.0000 H   0  0  0  0  0  0  0  0  0  0  0  0
   14.3388    3.1077    0.0000 H   0  0  0  0  0  0  0  0  0  0  0  0
   14.7373    2.4174    0.0000 H   0  0  0  0  0  0  0  0  0  0  0  0
   13.1966    6.6546    0.0000 H   0  0  0  0  0  0  0  0  0  0  0  0
   11.7476    5.8329    0.0000 H   0  0  0  0  0  0  0  0  0  0  0  0
   11.4216    3.3558    0.0000 H   0  0  0  0  0  0  0  0  0  0  0  0
    9.6771    6.5892    0.0000 H   0  0  0  0  0  0  0  0  0  0  0  0
    7.9576    3.3425    0.0000 H   0  0  0  0  0  0  0  0  0  0  0  0
    6.2255    3.3358    0.0000 H   0  0  0  0  0  0  0  0  0  0  0  0
    7.6191    5.7712    0.0000 H   0  0  0  0  0  0  0  0  0  0  0  0
    5.6516    7.9906    0.0000 H   0  0  0  0  0  0  0  0  0  0  0  0
    4.8055    7.7604    0.0000 H   0  0  0  0  0  0  0  0  0  0  0  0
    5.0357    6.9143    0.0000 H   0  0  0  0  0  0  0  0  0  0  0  0
    3.8750    2.9468    0.0000 H   0  0  0  0  0  0  0  0  0  0  0  0
    4.4973    2.3292    0.0000 H   0  0  0  0  0  0  0  0  0  0  0  0
    5.1149    2.9515    0.0000 H   0  0  0  0  0  0  0  0  0  0  0  0
    3.3072    5.9815    0.0000 H   0  0  0  0  0  0  0  0  0  0  0  0
    3.0835    5.1337    0.0000 H   0  0  0  0  0  0  0  0  0  0  0  0
    3.9314    4.9101    0.0000 H   0  0  0  0  0  0  0  0  0  0  0  0
   10.7964   15.3345    0.0000 H   0  0  0  0  0  0  0  0  0  0  0  0
    9.7225   15.3345    0.0000 H   0  0  0  0  0  0  0  0  0  0  0  0
    1.0739    7.8222    0.0000 H   0  0  0  0  0  0  0  0  0  0  0  0
    0.0000    7.8222    0.0000 H   0  0  0  0  0  0  0  0  0  0  0  0
    1.0739   10.3343    0.0000 H   0  0  0  0  0  0  0  0  0  0  0  0
    0.0000   10.3343    0.0000 H   0  0  0  0  0  0  0  0  0  0  0  0
   10.7964   10.3103    0.0000 H   0  0  0  0  0  0  0  0  0  0  0  0
    9.7225   10.3103    0.0000 H   0  0  0  0  0  0  0  0  0  0  0  0
   10.7964   12.8224    0.0000 H   0  0  0  0  0  0  0  0  0  0  0  0
    9.7225   12.8224    0.0000 H   0  0  0  0  0  0  0  0  0  0  0  0
   10.7964   17.8466    0.0000 H   0  0  0  0  0  0  0  0  0  0  0  0
    9.7225   17.8466    0.0000 H   0  0  0  0  0  0  0  0  0  0  0  0
  1  7  1  0  0  0  0
  1  8  1  0  0  0  0
  1  9  1  0  0  0  0
  1 10  2  0  0  0  0
  4 37  1  0  0  0  0
  5 26  1  0  0  0  0
  5 31  1  0  0  0  0
  6 27  2  0  0  0  0
  7 32  1  0  0  0  0
 11 43  1  0  0  0  0
 11 46  1  0  0  0  0
 12 44  1  0  0  0  0
 12 47  1  0  0  0  0
 13 45  1  0  0  0  0
 13 48  1  0  0  0  0
 14 73  1  0  0  0  0
 14 74  1  0  0  0  0
 15 75  1  0  0  0  0
 15 76  1  0  0  0  0
 16 77  1  0  0  0  0
 16 78  1  0  0  0  0
 17 79  1  0  0  0  0
 17 80  1  0  0  0  0
 18 81  1  0  0  0  0
 18 82  1  0  0  0  0
 19 83  1  0  0  0  0
 19 84  1  0  0  0  0
 20 27  1  0  0  0  0
 20 30  1  0  0  0  0
 20 32  1  0  0  0  0
 21 30  1  0  0  0  0
 21 34  2  0  0  0  0
 22 34  1  0  0  0  0
 22 36  1  0  0  0  0
 22 59  1  0  0  0  0
 23 36  2  0  0  0  0
 23 38  1  0  0  0  0
 24 38  1  0  0  0  0
 24 40  1  0  0  0  0
 24 61  1  0  0  0  0
 25 38  2  0  0  0  0
 25 39  1  0  0  0  0
 26 27  1  0  0  0  0
 26 28  1  0  0  0  0
 26 29  1  0  0  0  0
 28 49  1  0  0  0  0
 28 50  1  0  0  0  0
 28 51  1  0  0  0  0
 29 52  1  0  0  0  0
 29 53  1  0  0  0  0
 29 54  1  0  0  0  0
 30 31  2  0  0  0  0
 31 33  1  0  0  0  0
 32 55  1  0  0  0  0
 32 56  1  0  0  0  0
 33 35  2  0  0  0  0
 33 57  1  0  0  0  0
 34 35  1  0  0  0  0
 35 58  1  0  0  0  0
 36 37  1  0  0  0  0
 37 39  2  0  0  0  0
 39 60  1  0  0  0  0
 40 41  2  0  0  0  0
 40 42  1  0  0  0  0
 41 44  1  0  0  0  0
 41 62  1  0  0  0  0
 42 43  2  0  0  0  0
 42 63  1  0  0  0  0
 43 45  1  0  0  0  0
 44 45  2  0  0  0  0
 46 64  1  0  0  0  0
 46 65  1  0  0  0  0
 46 66  1  0  0  0  0
 47 67  1  0  0  0  0
 47 68  1  0  0  0  0
 47 69  1  0  0  0  0
 48 70  1  0  0  0  0
 48 71  1  0  0  0  0
 48 72  1  0  0  0  0
M  CHG  4   2   1   3   1   8  -1   9  -1
M  END
> <PUBCHEM_COMPOUND_CID>
24828759

> <PUBCHEM_COMPOUND_CANONICALIZED>
1

> <PUBCHEM_CACTVS_COMPLEXITY>
893

> <PUBCHEM_CACTVS_HBOND_ACCEPTOR>
21

> <PUBCHEM_CACTVS_HBOND_DONOR>
8

> <PUBCHEM_CACTVS_ROTATABLE_BOND>
9

> <PUBCHEM_CACTVS_SUBSKEYS>
AAADcfB7vTIAAAAAAAAAAAAAAAAAAAAAAAA8WLEAAAAAAACx8AAAHwAQCCAADEzBkg4/9pfIFRCoQDd3dIaCiCkxYqAJ2CF/7JiPL+LE+d+HPCrv1x/a6CewcA8AAEAACgAAQAAAgAAUAACAAAAAAAAAAA==

> <PUBCHEM_IUPAC_OPENEYE_NAME>
disodium;[6-[[5-fluoro-2-(3,4,5-trimethoxyanilino)pyrimidin-4-yl]amino]-2,2-dimethyl-3-oxo-pyrido[3,2-b][1,4]oxazin-4-yl]methyl phosphate;hexahydrate

> <PUBCHEM_IUPAC_CAS_NAME>
disodium;[6-[[5-fluoro-2-(3,4,5-trimethoxyanilino)-4-pyrimidinyl]amino]-2,2-dimethyl-3-oxo-4-pyrido[3,2-b][1,4]oxazinyl]methyl phosphate;hexahydrate

> <PUBCHEM_IUPAC_NAME_MARKUP>
disodium;[6-[[5-fluoro-2-(3,4,5-trimethoxyanilino)pyrimidin-4-yl]amino]-2,2-dimethyl-3-oxopyrido[3,2-b][1,4]oxazin-4-yl]methyl phosphate;hexahydrate

> <PUBCHEM_IUPAC_NAME>
disodium;[6-[[5-fluoro-2-(3,4,5-trimethoxyanilino)pyrimidin-4-yl]amino]-2,2-dimethyl-3-oxopyrido[3,2-b][1,4]oxazin-4-yl]methyl phosphate;hexahydrate

> <PUBCHEM_IUPAC_SYSTEMATIC_NAME>
disodium;[6-[[5-fluoranyl-2-[(3,4,5-trimethoxyphenyl)amino]pyrimidin-4-yl]amino]-2,2-dimethyl-3-oxidanylidene-pyrido[3,2-b][1,4]oxazin-4-yl]methyl phosphate;hexahydrate

> <PUBCHEM_IUPAC_TRADITIONAL_NAME>
disodium;[6-[[5-fluoro-2-(3,4,5-trimethoxyanilino)pyrimidin-4-yl]amino]-3-keto-2,2-dimethyl-pyrido[3,2-b][1,4]oxazin-4-yl]methyl phosphate;hexahydrate

> <PUBCHEM_IUPAC_INCHI>
InChI=1S/C23H26FN6O9P.2Na.6H2O/c1-23(2)21(31)30(11-38-40(32,33)34)20-14(39-23)6-7-17(28-20)27-19-13(24)10-25-22(29-19)26-12-8-15(35-3)18(37-5)16(9-12)36-4;;;;;;;;/h6-10H,11H2,1-5H3,(H2,32,33,34)(H2,25,26,27,28,29);;;6*1H2/q;2*+1;;;;;;/p-2

> <PUBCHEM_IUPAC_INCHIKEY>
ZQGJCHHKJNSPMS-UHFFFAOYSA-L

> <PUBCHEM_EXACT_MASS>
732.17556819

> <PUBCHEM_MOLECULAR_FORMULA>
C23H36FN6Na2O15P

> <PUBCHEM_MOLECULAR_WEIGHT>
732.5

> <PUBCHEM_OPENEYE_CAN_SMILES>
CC1(C(=O)N(C2=C(O1)C=CC(=N2)NC3=NC(=NC=C3F)NC4=CC(=C(C(=C4)OC)OC)OC)COP(=O)([O-])[O-])C.O.O.O.O.O.O.[Na+].[Na+]

> <PUBCHEM_OPENEYE_ISO_SMILES>
CC1(C(=O)N(C2=C(O1)C=CC(=N2)NC3=NC(=NC=C3F)NC4=CC(=C(C(=C4)OC)OC)OC)COP(=O)([O-])[O-])C.O.O.O.O.O.O.[Na+].[Na+]

> <PUBCHEM_CACTVS_TPSA>
198

> <PUBCHEM_MONOISOTOPIC_WEIGHT>
732.17556819

> <PUBCHEM_TOTAL_CHARGE>
0

> <PUBCHEM_HEAVY_ATOM_COUNT>
48

> <PUBCHEM_ATOM_DEF_STEREO_COUNT>
0

> <PUBCHEM_ATOM_UDEF_STEREO_COUNT>
0

> <PUBCHEM_BOND_DEF_STEREO_COUNT>
0

> <PUBCHEM_BOND_UDEF_STEREO_COUNT>
0

> <PUBCHEM_ISOTOPIC_ATOM_COUNT>
0

> <PUBCHEM_COMPONENT_COUNT>
9

> <PUBCHEM_CACTVS_TAUTO_COUNT>
-1

> <PUBCHEM_COORDINATE_TYPE>
1
5
255

> <PUBCHEM_BONDANNOTATIONS>
21  30  8
21  34  8
23  36  8
23  38  8
25  38  8
25  39  8
30  31  8
31  33  8
33  35  8
34  35  8
36  37  8
37  39  8
40  41  8
40  42  8
41  44  8
42  43  8
43  45  8
44  45  8

$$$$
25230468
  -OEChem-11282412102D

 69 72  0     0  0  0  0  0  0999 V2000
   10.8244    2.7500    0.0000 O   0  0  0  0  0  0  0  0  0  0  0  0
    4.7622    1.2500    0.0000 O   0  0  0  0  0  0  0  0  0  0  0  0
    8.2263    0.2500    0.0000 N   0  0  0  0  0  0  0  0  0  0  0  0
    5.6282   -0.2500    0.0000 N   0  0  0  0  0  0  0  0  0  0  0  0
    3.7916   -1.2445    0.0000 N   0  0  0  0  0  0  0  0  0  0  0  0
    2.9826    0.1567    0.0000 N   0  0  0  0  0  0  0  0  0  0  0  0
    2.0000   -3.2795    0.0000 N   0  0  0  0  0  0  0  0  0  0  0  0
    9.0923    1.7500    0.0000 C   0  0  0  0  0  0  0  0  0  0  0  0
    9.9583    3.2500    0.0000 C   0  0  0  0  0  0  0  0  0  0  0  0
   10.8244    1.7500    0.0000 C   0  0  0  0  0  0  0  0  0  0  0  0
    9.0923    2.7500    0.0000 C   0  0  0  0  0  0  0  0  0  0  0  0
    9.9583    1.2500    0.0000 C   0  0  0  0  0  0  0  0  0  0  0  0
    8.2263    1.2500    0.0000 C   0  0  0  0  0  0  0  0  0  0  0  0
    7.3602   -3.2500    0.0000 C   0  0  0  0  0  0  0  0  0  0  0  0
   10.4583    4.1160    0.0000 C   0  0  0  0  0  0  0  0  0  0  0  0
    9.4583    4.1160    0.0000 C   0  0  0  0  0  0  0  0  0  0  0  0
   11.8244    1.7500    0.0000 C   0  0  0  0  0  0  0  0  0  0  0  0
   11.3244    0.8840    0.0000 C   0  0  0  0  0  0  0  0  0  0  0  0
    8.2263   -2.7500    0.0000 C   0  0  0  0  0  0  0  0  0  0  0  0
    6.4942   -2.7500    0.0000 C   0  0  0  0  0  0  0  0  0  0  0  0
    8.2263   -1.7500    0.0000 C   0  0  0  0  0  0  0  0  0  0  0  0
    7.3602   -1.2500    0.0000 C   0  0  0  0  0  0  0  0  0  0  0  0
    7.3602   -0.2500    0.0000 C   0  0  0  0  0  0  0  0  0  0  0  0
    7.3602    1.7500    0.0000 C   0  0  0  0  0  0  0  0  0  0  0  0
    6.4942   -1.7500    0.0000 C   0  0  0  0  0  0  0  0  0  0  0  0
    7.8602   -4.1160    0.0000 C   0  0  0  0  0  0  0  0  0  0  0  0
    6.8602   -4.1160    0.0000 C   0  0  0  0  0  0  0  0  0  0  0  0
    6.4942    0.2500    0.0000 C   0  0  0  0  0  0  0  0  0  0  0  0
    6.4942    1.2500    0.0000 C   0  0  0  0  0  0  0  0  0  0  0  0
    4.7622    0.2500    0.0000 C   0  0  0  0  0  0  0  0  0  0  0  0
    3.8962   -0.2500    0.0000 C   0  0  0  0  0  0  0  0  0  0  0  0
    2.8135   -1.4524    0.0000 C   0  0  0  0  0  0  0  0  0  0  0  0
    2.3135   -0.5864    0.0000 C   0  0  0  0  0  0  0  0  0  0  0  0
    2.4067   -2.3660    0.0000 C   0  0  0  0  0  0  0  0  0  0  0  0
    8.5554    2.0600    0.0000 H   0  0  0  0  0  0  0  0  0  0  0  0
    8.8802    3.3326    0.0000 H   0  0  0  0  0  0  0  0  0  0  0  0
    8.4817    2.6423    0.0000 H   0  0  0  0  0  0  0  0  0  0  0  0
    9.5598    0.7751    0.0000 H   0  0  0  0  0  0  0  0  0  0  0  0
   10.3569    0.7751    0.0000 H   0  0  0  0  0  0  0  0  0  0  0  0
   10.9953    3.8060    0.0000 H   0  0  0  0  0  0  0  0  0  0  0  0
   10.7683    4.6530    0.0000 H   0  0  0  0  0  0  0  0  0  0  0  0
    9.9214    4.4260    0.0000 H   0  0  0  0  0  0  0  0  0  0  0  0
    9.9953    4.4260    0.0000 H   0  0  0  0  0  0  0  0  0  0  0  0
    9.1483    4.6530    0.0000 H   0  0  0  0  0  0  0  0  0  0  0  0
    8.9214    3.8060    0.0000 H   0  0  0  0  0  0  0  0  0  0  0  0
   11.8244    1.1300    0.0000 H   0  0  0  0  0  0  0  0  0  0  0  0
   12.4444    1.7500    0.0000 H   0  0  0  0  0  0  0  0  0  0  0  0
   11.8244    2.3700    0.0000 H   0  0  0  0  0  0  0  0  0  0  0  0
   10.7874    0.5740    0.0000 H   0  0  0  0  0  0  0  0  0  0  0  0
   11.6344    0.3470    0.0000 H   0  0  0  0  0  0  0  0  0  0  0  0
   11.8613    1.1940    0.0000 H   0  0  0  0  0  0  0  0  0  0  0  0
    8.4383   -3.3326    0.0000 H   0  0  0  0  0  0  0  0  0  0  0  0
    8.8369   -2.6423    0.0000 H   0  0  0  0  0  0  0  0  0  0  0  0
    5.8836   -2.6423    0.0000 H   0  0  0  0  0  0  0  0  0  0  0  0
    6.2822   -3.3326    0.0000 H   0  0  0  0  0  0  0  0  0  0  0  0
    8.8369   -1.8577    0.0000 H   0  0  0  0  0  0  0  0  0  0  0  0
    8.4383   -1.1674    0.0000 H   0  0  0  0  0  0  0  0  0  0  0  0
    7.3602    2.3700    0.0000 H   0  0  0  0  0  0  0  0  0  0  0  0
    5.9573   -1.4400    0.0000 H   0  0  0  0  0  0  0  0  0  0  0  0
    7.3233   -4.4260    0.0000 H   0  0  0  0  0  0  0  0  0  0  0  0
    8.1702   -4.6530    0.0000 H   0  0  0  0  0  0  0  0  0  0  0  0
    8.3972   -3.8060    0.0000 H   0  0  0  0  0  0  0  0  0  0  0  0
    6.3233   -3.8060    0.0000 H   0  0  0  0  0  0  0  0  0  0  0  0
    6.5502   -4.6530    0.0000 H   0  0  0  0  0  0  0  0  0  0  0  0
    7.3972   -4.4260    0.0000 H   0  0  0  0  0  0  0  0  0  0  0  0
    5.9573    1.5600    0.0000 H   0  0  0  0  0  0  0  0  0  0  0  0
    5.6282   -0.8700    0.0000 H   0  0  0  0  0  0  0  0  0  0  0  0
    4.2524   -1.6594    0.0000 H   0  0  0  0  0  0  0  0  0  0  0  0
    1.6969   -0.5216    0.0000 H   0  0  0  0  0  0  0  0  0  0  0  0
  1  9  1  0  0  0  0
  1 10  1  0  0  0  0
  2 30  2  0  0  0  0
  3 13  2  0  0  0  0
  3 23  1  0  0  0  0
  4 28  1  0  0  0  0
  4 30  1  0  0  0  0
  4 67  1  0  0  0  0
  5 31  1  0  0  0  0
  5 32  1  0  0  0  0
  5 68  1  0  0  0  0
  6 31  2  0  0  0  0
  6 33  1  0  0  0  0
  7 34  3  0  0  0  0
  8 11  1  0  0  0  0
  8 12  1  0  0  0  0
  8 13  1  0  0  0  0
  8 35  1  0  0  0  0
  9 11  1  0  0  0  0
  9 15  1  0  0  0  0
  9 16  1  0  0  0  0
 10 12  1  0  0  0  0
 10 17  1  0  0  0  0
 10 18  1  0  0  0  0
 11 36  1  0  0  0  0
 11 37  1  0  0  0  0
 12 38  1  0  0  0  0
 12 39  1  0  0  0  0
 13 24  1  0  0  0  0
 14 19  1  0  0  0  0
 14 20  1  0  0  0  0
 14 26  1  0  0  0  0
 14 27  1  0  0  0  0
 15 40  1  0  0  0  0
 15 41  1  0  0  0  0
 15 42  1  0  0  0  0
 16 43  1  0  0  0  0
 16 44  1  0  0  0  0
 16 45  1  0  0  0  0
 17 46  1  0  0  0  0
 17 47  1  0  0  0  0
 17 48  1  0  0  0  0
 18 49  1  0  0  0  0
 18 50  1  0  0  0  0
 18 51  1  0  0  0  0
 19 21  1  0  0  0  0
 19 52  1  0  0  0  0
 19 53  1  0  0  0  0
 20 25  1  0  0  0  0
 20 54  1  0  0  0  0
 20 55  1  0  0  0  0
 21 22  1  0  0  0  0
 21 56  1  0  0  0  0
 21 57  1  0  0  0  0
 22 23  1  0  0  0  0
 22 25  2  0  0  0  0
 23 28  2  0  0  0  0
 24 29  2  0  0  0  0
 24 58  1  0  0  0  0
 25 59  1  0  0  0  0
 26 60  1  0  0  0  0
 26 61  1  0  0  0  0
 26 62  1  0  0  0  0
 27 63  1  0  0  0  0
 27 64  1  0  0  0  0
 27 65  1  0  0  0  0
 28 29  1  0  0  0  0
 29 66  1  0  0  0  0
 30 31  1  0  0  0  0
 32 33  2  0  0  0  0
 32 34  1  0  0  0  0
 33 69  1  0  0  0  0
M  END
> <PUBCHEM_COMPOUND_CID>
25230468

> <PUBCHEM_COMPOUND_CANONICALIZED>
1

> <PUBCHEM_CACTVS_COMPLEXITY>
838

> <PUBCHEM_CACTVS_HBOND_ACCEPTOR>
5

> <PUBCHEM_CACTVS_HBOND_DONOR>
2

> <PUBCHEM_CACTVS_ROTATABLE_BOND>
4

> <PUBCHEM_CACTVS_SUBSKEYS>
AAADcfB7sAAAAAAAAAAAAAAAAAAAAWAAAAAsSIAAAAAAAAAB4AAAHgAQAAAAD0zBlwQ/0JbJlAC4Bzd3dACigC2zEqAJ2SC4dJiI6OLAmbGWIAhslALIyCewwPAPAAAAAAAAAAAAAAAAAAAAAAAAAAAAAA==

> <PUBCHEM_IUPAC_OPENEYE_NAME>
5-cyano-N-[2-(4,4-dimethylcyclohexen-1-yl)-6-(2,2,6,6-tetramethyltetrahydropyran-4-yl)-3-pyridyl]-1H-imidazole-2-carboxamide

> <PUBCHEM_IUPAC_CAS_NAME>
5-cyano-N-[2-(4,4-dimethyl-1-cyclohexenyl)-6-(2,2,6,6-tetramethyl-4-oxanyl)-3-pyridinyl]-1H-imidazole-2-carboxamide

> <PUBCHEM_IUPAC_NAME_MARKUP>
5-cyano-<I>N</I>-[2-(4,4-dimethylcyclohexen-1-yl)-6-(2,2,6,6-tetramethyloxan-4-yl)pyridin-3-yl]-1<I>H</I>-imidazole-2-carboxamide

> <PUBCHEM_IUPAC_NAME>
5-cyano-N-[2-(4,4-dimethylcyclohexen-1-yl)-6-(2,2,6,6-tetramethyloxan-4-yl)pyridin-3-yl]-1H-imidazole-2-carboxamide

> <PUBCHEM_IUPAC_SYSTEMATIC_NAME>
5-cyano-N-[2-(4,4-dimethylcyclohexen-1-yl)-6-(2,2,6,6-tetramethyloxan-4-yl)pyridin-3-yl]-1H-imidazole-2-carboxamide

> <PUBCHEM_IUPAC_TRADITIONAL_NAME>
5-cyano-N-[2-(4,4-dimethylcyclohexen-1-yl)-6-(2,2,6,6-tetramethyltetrahydropyran-4-yl)-3-pyridyl]-1H-imidazole-2-carboxamide

> <PUBCHEM_IUPAC_INCHI>
InChI=1S/C27H35N5O2/c1-25(2)11-9-17(10-12-25)22-21(32-24(33)23-29-16-19(15-28)30-23)8-7-20(31-22)18-13-26(3,4)34-27(5,6)14-18/h7-9,16,18H,10-14H2,1-6H3,(H,29,30)(H,32,33)

> <PUBCHEM_IUPAC_INCHIKEY>
BNVPFDRNGHMRJS-UHFFFAOYSA-N

> <PUBCHEM_XLOGP3_AA>
4.3

> <PUBCHEM_EXACT_MASS>
461.27907538

> <PUBCHEM_MOLECULAR_FORMULA>
C27H35N5O2

> <PUBCHEM_MOLECULAR_WEIGHT>
461.6

> <PUBCHEM_OPENEYE_CAN_SMILES>
CC1(CCC(=CC1)C2=C(C=CC(=N2)C3CC(OC(C3)(C)C)(C)C)NC(=O)C4=NC=C(N4)C#N)C

> <PUBCHEM_OPENEYE_ISO_SMILES>
CC1(CCC(=CC1)C2=C(C=CC(=N2)C3CC(OC(C3)(C)C)(C)C)NC(=O)C4=NC=C(N4)C#N)C

> <PUBCHEM_CACTVS_TPSA>
104

> <PUBCHEM_MONOISOTOPIC_WEIGHT>
461.27907538

> <PUBCHEM_TOTAL_CHARGE>
0

> <PUBCHEM_HEAVY_ATOM_COUNT>
34

> <PUBCHEM_ATOM_DEF_STEREO_COUNT>
0

> <PUBCHEM_ATOM_UDEF_STEREO_COUNT>
0

> <PUBCHEM_BOND_DEF_STEREO_COUNT>
0

> <PUBCHEM_BOND_UDEF_STEREO_COUNT>
0

> <PUBCHEM_ISOTOPIC_ATOM_COUNT>
0

> <PUBCHEM_COMPONENT_COUNT>
1

> <PUBCHEM_CACTVS_TAUTO_COUNT>
11

> <PUBCHEM_COORDINATE_TYPE>
1
5
255

> <PUBCHEM_BONDANNOTATIONS>
13  24  8
23  28  8
24  29  8
28  29  8
3  13  8
3  23  8
32  33  8
5  31  8
5  32  8
6  31  8
6  33  8

$$$$
46701811
  -OEChem-11282412102D

 67 71  0     1  0  0  0  0  0999 V2000
   12.3739   -2.2696    0.0000 Cl  0  0  0  0  0  0  0  0  0  0  0  0
   16.6863   -3.8195    0.0000 F   0  0  0  0  0  0  0  0  0  0  0  0
    2.0000    1.7849    0.0000 O   0  0  0  0  0  0  0  0  0  0  0  0
    5.4641    1.7849    0.0000 O   0  0  0  0  0  0  0  0  0  0  0  0
   14.1174   -1.2896    0.0000 O   0  0  0  0  0  0  0  0  0  0  0  0
    3.7320    0.7849    0.0000 N   0  0  0  0  0  0  0  0  0  0  0  0
    6.3301    2.2849    0.0000 N   0  0  0  0  0  0  0  0  0  0  0  0
   10.6766    0.7503    0.0000 N   0  0  0  0  0  0  0  0  0  0  0  0
   10.6882    3.8195    0.0000 N   0  0  0  0  0  0  0  0  0  0  0  0
   11.5942    2.2640    0.0000 N   0  0  0  0  0  0  0  0  0  0  0  0
    3.7320    1.7849    0.0000 C   0  0  2  0  0  0  0  0  0  0  0  0
    2.8660    2.2849    0.0000 C   0  0  0  0  0  0  0  0  0  0  0  0
    2.8660    0.2849    0.0000 C   0  0  0  0  0  0  0  0  0  0  0  0
    4.5981    2.2849    0.0000 C   0  0  0  0  0  0  0  0  0  0  0  0
    2.0000    0.7849    0.0000 C   0  0  0  0  0  0  0  0  0  0  0  0
    9.7942    2.2849    0.0000 C   0  0  0  0  0  0  0  0  0  0  0  0
    8.0622    2.2849    0.0000 C   0  0  0  0  0  0  0  0  0  0  0  0
    7.1962    1.7849    0.0000 C   0  0  0  0  0  0  0  0  0  0  0  0
    8.9282    1.7849    0.0000 C   0  0  0  0  0  0  0  0  0  0  0  0
    9.7942    3.2849    0.0000 C   0  0  0  0  0  0  0  0  0  0  0  0
   10.6882    1.7502    0.0000 C   0  0  0  0  0  0  0  0  0  0  0  0
    8.0622    3.2849    0.0000 C   0  0  0  0  0  0  0  0  0  0  0  0
    8.9282    3.7849    0.0000 C   0  0  0  0  0  0  0  0  0  0  0  0
   11.5368    0.2403    0.0000 C   0  0  0  0  0  0  0  0  0  0  0  0
   11.5252   -0.7596    0.0000 C   0  0  0  0  0  0  0  0  0  0  0  0
   12.4085    0.7302    0.0000 C   0  0  0  0  0  0  0  0  0  0  0  0
   13.2572   -0.7797    0.0000 C   0  0  0  0  0  0  0  0  0  0  0  0
   12.3854   -1.2696    0.0000 C   0  0  0  0  0  0  0  0  0  0  0  0
   13.2687    0.2203    0.0000 C   0  0  0  0  0  0  0  0  0  0  0  0
   11.5942    3.3057    0.0000 C   0  0  0  0  0  0  0  0  0  0  0  0
   14.9891   -0.7997    0.0000 C   0  0  0  0  0  0  0  0  0  0  0  0
    7.1962    0.7849    0.0000 C   0  0  0  0  0  0  0  0  0  0  0  0
   15.8493   -1.3097    0.0000 C   0  0  0  0  0  0  0  0  0  0  0  0
   15.8377   -2.3096    0.0000 C   0  0  0  0  0  0  0  0  0  0  0  0
   16.7210   -0.8197    0.0000 C   0  0  0  0  0  0  0  0  0  0  0  0
   16.6979   -2.8196    0.0000 C   0  0  0  0  0  0  0  0  0  0  0  0
   17.5812   -1.3297    0.0000 C   0  0  0  0  0  0  0  0  0  0  0  0
   17.5697   -2.3296    0.0000 C   0  0  0  0  0  0  0  0  0  0  0  0
    7.1962   -0.2151    0.0000 C   0  0  0  0  0  0  0  0  0  0  0  0
    7.1962   -1.2151    0.0000 C   0  0  0  0  0  0  0  0  0  0  0  0
    4.2690    1.4749    0.0000 H   0  0  0  0  0  0  0  0  0  0  0  0
    3.2646    2.7598    0.0000 H   0  0  0  0  0  0  0  0  0  0  0  0
    2.4675    2.7598    0.0000 H   0  0  0  0  0  0  0  0  0  0  0  0
    4.2690    0.4749    0.0000 H   0  0  0  0  0  0  0  0  0  0  0  0
    2.4675   -0.1901    0.0000 H   0  0  0  0  0  0  0  0  0  0  0  0
    3.2646   -0.1901    0.0000 H   0  0  0  0  0  0  0  0  0  0  0  0
    4.9966    2.7598    0.0000 H   0  0  0  0  0  0  0  0  0  0  0  0
    4.1996    2.7598    0.0000 H   0  0  0  0  0  0  0  0  0  0  0  0
    1.3894    0.8925    0.0000 H   0  0  0  0  0  0  0  0  0  0  0  0
    1.7880    0.2023    0.0000 H   0  0  0  0  0  0  0  0  0  0  0  0
    8.9282    1.1649    0.0000 H   0  0  0  0  0  0  0  0  0  0  0  0
    7.5252    3.5949    0.0000 H   0  0  0  0  0  0  0  0  0  0  0  0
    8.9282    4.4049    0.0000 H   0  0  0  0  0  0  0  0  0  0  0  0
   10.1361    0.4465    0.0000 H   0  0  0  0  0  0  0  0  0  0  0  0
   10.9847   -1.0634    0.0000 H   0  0  0  0  0  0  0  0  0  0  0  0
   12.4157    1.3502    0.0000 H   0  0  0  0  0  0  0  0  0  0  0  0
   13.8092    0.5240    0.0000 H   0  0  0  0  0  0  0  0  0  0  0  0
   12.1300    3.6178    0.0000 H   0  0  0  0  0  0  0  0  0  0  0  0
   15.3931   -0.3294    0.0000 H   0  0  0  0  0  0  0  0  0  0  0  0
   14.5961   -0.3202    0.0000 H   0  0  0  0  0  0  0  0  0  0  0  0
   15.2972   -2.6134    0.0000 H   0  0  0  0  0  0  0  0  0  0  0  0
   16.7282   -0.1998    0.0000 H   0  0  0  0  0  0  0  0  0  0  0  0
   18.1217   -1.0259    0.0000 H   0  0  0  0  0  0  0  0  0  0  0  0
   18.1030   -2.6458    0.0000 H   0  0  0  0  0  0  0  0  0  0  0  0
    6.5762   -1.2151    0.0000 H   0  0  0  0  0  0  0  0  0  0  0  0
    7.1962   -1.8351    0.0000 H   0  0  0  0  0  0  0  0  0  0  0  0
    7.8162   -1.2151    0.0000 H   0  0  0  0  0  0  0  0  0  0  0  0
  1 28  1  0  0  0  0
  2 36  1  0  0  0  0
  3 12  1  0  0  0  0
  3 15  1  0  0  0  0
  4  7  1  0  0  0  0
  4 14  1  0  0  0  0
  5 27  1  0  0  0  0
  5 31  1  0  0  0  0
  6 11  1  0  0  0  0
  6 13  1  0  0  0  0
  6 44  1  0  0  0  0
  7 18  2  0  0  0  0
  8 21  1  0  0  0  0
  8 24  1  0  0  0  0
  8 54  1  0  0  0  0
  9 20  1  0  0  0  0
  9 30  2  0  0  0  0
 10 21  2  0  0  0  0
 10 30  1  0  0  0  0
 11 12  1  0  0  0  0
 11 14  1  6  0  0  0
 11 41  1  0  0  0  0
 12 42  1  0  0  0  0
 12 43  1  0  0  0  0
 13 15  1  0  0  0  0
 13 45  1  0  0  0  0
 13 46  1  0  0  0  0
 14 47  1  0  0  0  0
 14 48  1  0  0  0  0
 15 49  1  0  0  0  0
 15 50  1  0  0  0  0
 16 19  1  0  0  0  0
 16 20  2  0  0  0  0
 16 21  1  0  0  0  0
 17 18  1  0  0  0  0
 17 19  2  0  0  0  0
 17 22  1  0  0  0  0
 18 32  1  0  0  0  0
 19 51  1  0  0  0  0
 20 23  1  0  0  0  0
 22 23  2  0  0  0  0
 22 52  1  0  0  0  0
 23 53  1  0  0  0  0
 24 25  2  0  0  0  0
 24 26  1  0  0  0  0
 25 28  1  0  0  0  0
 25 55  1  0  0  0  0
 26 29  2  0  0  0  0
 26 56  1  0  0  0  0
 27 28  2  0  0  0  0
 27 29  1  0  0  0  0
 29 57  1  0  0  0  0
 30 58  1  0  0  0  0
 31 33  1  0  0  0  0
 31 59  1  0  0  0  0
 31 60  1  0  0  0  0
 32 39  3  0  0  0  0
 33 34  2  0  0  0  0
 33 35  1  0  0  0  0
 34 36  1  0  0  0  0
 34 61  1  0  0  0  0
 35 37  2  0  0  0  0
 35 62  1  0  0  0  0
 36 38  2  0  0  0  0
 37 38  1  0  0  0  0
 37 63  1  0  0  0  0
 38 64  1  0  0  0  0
 39 40  1  0  0  0  0
 40 65  1  0  0  0  0
 40 66  1  0  0  0  0
 40 67  1  0  0  0  0
M  END
> <PUBCHEM_COMPOUND_CID>
46701811

> <PUBCHEM_COMPOUND_CANONICALIZED>
1

> <PUBCHEM_CACTVS_COMPLEXITY>
899

> <PUBCHEM_CACTVS_HBOND_ACCEPTOR>
9

> <PUBCHEM_CACTVS_HBOND_DONOR>
2

> <PUBCHEM_CACTVS_ROTATABLE_BOND>
10

> <PUBCHEM_CACTVS_SUBSKEYS>
AAADceB7sQAEAAAAAAAAAAAAAAAAAAAAAAA8eMECAAAAAACx9AAAHwIUAAAADC7hni439vbYFADgEyZjZAiCiCkxJ+AJ2KA+b5iOLuPF+9uHPCjt0BPY6CewwOAOCEACAAICCAAQgAQABAQQAAAAAAAAAA==

> <PUBCHEM_IUPAC_OPENEYE_NAME>
N-[3-chloro-4-[(3-fluorophenyl)methoxy]phenyl]-6-[(Z)-N-[[(3R)-morpholin-3-yl]methoxy]-C-prop-1-ynyl-carbonimidoyl]quinazolin-4-amine

> <PUBCHEM_IUPAC_CAS_NAME>
N-[3-chloro-4-[(3-fluorophenyl)methoxy]phenyl]-6-[(1Z)-1-[[(3R)-3-morpholinyl]methoxyimino]but-2-ynyl]-4-quinazolinamine

> <PUBCHEM_IUPAC_NAME_MARKUP>
<I>N</I>-[3-chloro-4-[(3-fluorophenyl)methoxy]phenyl]-6-[(<I>Z</I>)-<I>N</I>-[[(3<I>R</I>)-morpholin-3-yl]methoxy]-<I>C</I>-prop-1-ynylcarbonimidoyl]quinazolin-4-amine

> <PUBCHEM_IUPAC_NAME>
N-[3-chloro-4-[(3-fluorophenyl)methoxy]phenyl]-6-[(Z)-N-[[(3R)-morpholin-3-yl]methoxy]-C-prop-1-ynylcarbonimidoyl]quinazolin-4-amine

> <PUBCHEM_IUPAC_SYSTEMATIC_NAME>
N-[3-chloranyl-4-[(3-fluorophenyl)methoxy]phenyl]-6-[(Z)-N-[[(3R)-morpholin-3-yl]methoxy]-C-prop-1-ynyl-carbonimidoyl]quinazolin-4-amine

> <PUBCHEM_IUPAC_TRADITIONAL_NAME>
[3-chloro-4-(3-fluorobenzyl)oxy-phenyl]-[6-[(Z)-N-[[(3R)-morpholin-3-yl]methoxy]-C-prop-1-ynyl-carbonimidoyl]quinazolin-4-yl]amine

> <PUBCHEM_IUPAC_INCHI>
InChI=1S/C30H27ClFN5O3/c1-2-4-27(37-40-18-24-17-38-12-11-33-24)21-7-9-28-25(14-21)30(35-19-34-28)36-23-8-10-29(26(31)15-23)39-16-20-5-3-6-22(32)13-20/h3,5-10,13-15,19,24,33H,11-12,16-18H2,1H3,(H,34,35,36)/b37-27+/t24-/m1/s1

> <PUBCHEM_IUPAC_INCHIKEY>
IBCIAMOTBDGBJN-NRLRZRKLSA-N

> <PUBCHEM_XLOGP3_AA>
6.1

> <PUBCHEM_EXACT_MASS>
559.1786456

> <PUBCHEM_MOLECULAR_FORMULA>
C30H27ClFN5O3

> <PUBCHEM_MOLECULAR_WEIGHT>
560.0

> <PUBCHEM_OPENEYE_CAN_SMILES>
CC#CC(=NOCC1COCCN1)C2=CC3=C(C=C2)N=CN=C3NC4=CC(=C(C=C4)OCC5=CC(=CC=C5)F)Cl

> <PUBCHEM_OPENEYE_ISO_SMILES>
CC#C/C(=N\OC[C@H]1COCCN1)/C2=CC3=C(C=C2)N=CN=C3NC4=CC(=C(C=C4)OCC5=CC(=CC=C5)F)Cl

> <PUBCHEM_CACTVS_TPSA>
89.9

> <PUBCHEM_MONOISOTOPIC_WEIGHT>
559.1786456

> <PUBCHEM_TOTAL_CHARGE>
0

> <PUBCHEM_HEAVY_ATOM_COUNT>
40

> <PUBCHEM_ATOM_DEF_STEREO_COUNT>
1

> <PUBCHEM_ATOM_UDEF_STEREO_COUNT>
0

> <PUBCHEM_BOND_DEF_STEREO_COUNT>
1

> <PUBCHEM_BOND_UDEF_STEREO_COUNT>
0

> <PUBCHEM_ISOTOPIC_ATOM_COUNT>
0

> <PUBCHEM_COMPONENT_COUNT>
1

> <PUBCHEM_CACTVS_TAUTO_COUNT>
5

> <PUBCHEM_COORDINATE_TYPE>
1
5
255

> <PUBCHEM_BONDANNOTATIONS>
10  21  8
10  30  8
11  14  6
16  19  8
16  20  8
16  21  8
17  19  8
17  22  8
20  23  8
22  23  8
24  25  8
24  26  8
25  28  8
26  29  8
27  28  8
27  29  8
33  34  8
33  35  8
34  36  8
35  37  8
36  38  8
37  38  8
9  20  8
9  30  8

$$$$
46700774
  -OEChem-11282412102D

 70 72  0     0  0  0  0  0  0999 V2000
    5.8306    0.0000    0.0000 Cl  0  0  0  0  0  0  0  0  0  0  0  0
    7.7942    6.6200    0.0000 O   0  0  0  0  0  0  0  0  0  0  0  0
    0.0000    6.1200    0.0000 O   0  0  0  0  0  0  0  0  0  0  0  0
    6.3306   12.2400    0.0000 O   0  0  0  0  0  0  0  0  0  0  0  0
   11.2583    7.6200    0.0000 N   0  0  0  0  0  0  0  0  0  0  0  0
    5.1962    6.1200    0.0000 N   0  0  0  0  0  0  0  0  0  0  0  0
    6.0622    4.6200    0.0000 N   0  0  0  0  0  0  0  0  0  0  0  0
    1.7320    6.1200    0.0000 N   0  0  0  0  0  0  0  0  0  0  0  0
    2.5981    6.6200    0.0000 N   0  0  0  0  0  0  0  0  0  0  0  0
    6.9282    7.1200    0.0000 N   0  0  0  0  0  0  0  0  0  0  0  0
    9.5263    6.6200    0.0000 C   0  0  0  0  0  0  0  0  0  0  0  0
   10.3923    6.1200    0.0000 C   0  0  0  0  0  0  0  0  0  0  0  0
    9.5263    7.6200    0.0000 C   0  0  0  0  0  0  0  0  0  0  0  0
   11.2583    6.6200    0.0000 C   0  0  0  0  0  0  0  0  0  0  0  0
   10.3923    8.1200    0.0000 C   0  0  0  0  0  0  0  0  0  0  0  0
    8.6602    6.1200    0.0000 C   0  0  0  0  0  0  0  0  0  0  0  0
   12.1244    8.1200    0.0000 C   0  0  0  0  0  0  0  0  0  0  0  0
    6.9282    6.1200    0.0000 C   0  0  0  0  0  0  0  0  0  0  0  0
    6.0622    6.6200    0.0000 C   0  0  0  0  0  0  0  0  0  0  0  0
    6.9282    5.1200    0.0000 C   0  0  0  0  0  0  0  0  0  0  0  0
    5.1962    5.1200    0.0000 C   0  0  0  0  0  0  0  0  0  0  0  0
    4.3301    4.6200    0.0000 C   0  0  0  0  0  0  0  0  0  0  0  0
    2.5981    4.6200    0.0000 C   0  0  0  0  0  0  0  0  0  0  0  0
    3.4641    5.1200    0.0000 C   0  0  0  0  0  0  0  0  0  0  0  0
    1.7320    5.1200    0.0000 C   0  0  0  0  0  0  0  0  0  0  0  0
    4.3301    3.6200    0.0000 C   0  0  0  0  0  0  0  0  0  0  0  0
    2.5981    3.6200    0.0000 C   0  0  0  0  0  0  0  0  0  0  0  0
    3.4641    3.1200    0.0000 C   0  0  0  0  0  0  0  0  0  0  0  0
    0.8660    6.6200    0.0000 C   0  0  0  0  0  0  0  0  0  0  0  0
    2.5981    7.6200    0.0000 C   0  0  0  0  0  0  0  0  0  0  0  0
    3.4641    8.1200    0.0000 C   0  0  0  0  0  0  0  0  0  0  0  0
    1.7320    8.1200    0.0000 C   0  0  0  0  0  0  0  0  0  0  0  0
    0.8660    7.6200    0.0000 C   0  0  0  0  0  0  0  0  0  0  0  0
    4.3301    7.6200    0.0000 C   0  0  0  0  0  0  0  0  0  0  0  0
    3.4641    9.1200    0.0000 C   0  0  0  0  0  0  0  0  0  0  0  0
    5.1962    8.1200    0.0000 C   0  0  0  0  0  0  0  0  0  0  0  0
    4.3301    9.6200    0.0000 C   0  0  0  0  0  0  0  0  0  0  0  0
    5.1962    9.1200    0.0000 C   0  0  0  0  0  0  0  0  0  0  0  0
    6.0622    7.6200    0.0000 C   0  0  0  0  0  0  0  0  0  0  0  0
    8.9893    6.9300    0.0000 H   0  0  0  0  0  0  0  0  0  0  0  0
    9.9938    5.6450    0.0000 H   0  0  0  0  0  0  0  0  0  0  0  0
   10.7908    5.6450    0.0000 H   0  0  0  0  0  0  0  0  0  0  0  0
    9.3142    8.2026    0.0000 H   0  0  0  0  0  0  0  0  0  0  0  0
    8.9157    7.5123    0.0000 H   0  0  0  0  0  0  0  0  0  0  0  0
   11.4704    6.0374    0.0000 H   0  0  0  0  0  0  0  0  0  0  0  0
   11.8689    6.7277    0.0000 H   0  0  0  0  0  0  0  0  0  0  0  0
   10.7908    8.5950    0.0000 H   0  0  0  0  0  0  0  0  0  0  0  0
    9.9938    8.5950    0.0000 H   0  0  0  0  0  0  0  0  0  0  0  0
    8.2617    5.6450    0.0000 H   0  0  0  0  0  0  0  0  0  0  0  0
    9.0588    5.6450    0.0000 H   0  0  0  0  0  0  0  0  0  0  0  0
   12.4344    7.5831    0.0000 H   0  0  0  0  0  0  0  0  0  0  0  0
   12.6613    8.4300    0.0000 H   0  0  0  0  0  0  0  0  0  0  0  0
   11.8144    8.6569    0.0000 H   0  0  0  0  0  0  0  0  0  0  0  0
    6.0622    7.2400    0.0000 H   0  0  0  0  0  0  0  0  0  0  0  0
    7.4651    4.8100    0.0000 H   0  0  0  0  0  0  0  0  0  0  0  0
    1.1215    5.2277    0.0000 H   0  0  0  0  0  0  0  0  0  0  0  0
    1.5200    4.5374    0.0000 H   0  0  0  0  0  0  0  0  0  0  0  0
    3.4641    5.7400    0.0000 H   0  0  0  0  0  0  0  0  0  0  0  0
    4.8671    3.3100    0.0000 H   0  0  0  0  0  0  0  0  0  0  0  0
    2.0611    3.3100    0.0000 H   0  0  0  0  0  0  0  0  0  0  0  0
    3.4641    2.5000    0.0000 H   0  0  0  0  0  0  0  0  0  0  0  0
    1.7320    8.7400    0.0000 H   0  0  0  0  0  0  0  0  0  0  0  0
    0.3291    7.9300    0.0000 H   0  0  0  0  0  0  0  0  0  0  0  0
    4.3301    7.0000    0.0000 H   0  0  0  0  0  0  0  0  0  0  0  0
    2.9272    9.4300    0.0000 H   0  0  0  0  0  0  0  0  0  0  0  0
    4.3301   10.2400    0.0000 H   0  0  0  0  0  0  0  0  0  0  0  0
    5.7331    9.4300    0.0000 H   0  0  0  0  0  0  0  0  0  0  0  0
    6.8676   12.5500    0.0000 H   0  0  0  0  0  0  0  0  0  0  0  0
    5.7937   12.5500    0.0000 H   0  0  0  0  0  0  0  0  0  0  0  0
    6.8306    0.0000    0.0000 H   0  0  0  0  0  0  0  0  0  0  0  0
  1 70  1  0  0  0  0
  2 16  1  0  0  0  0
  2 18  1  0  0  0  0
  3 29  2  0  0  0  0
  4 68  1  0  0  0  0
  4 69  1  0  0  0  0
  5 14  1  0  0  0  0
  5 15  1  0  0  0  0
  5 17  1  0  0  0  0
  6 19  2  0  0  0  0
  6 21  1  0  0  0  0
  7 20  1  0  0  0  0
  7 21  2  0  0  0  0
  8  9  1  0  0  0  0
  8 25  1  0  0  0  0
  8 29  1  0  0  0  0
  9 30  2  0  0  0  0
 10 39  3  0  0  0  0
 11 12  1  0  0  0  0
 11 13  1  0  0  0  0
 11 16  1  0  0  0  0
 11 40  1  0  0  0  0
 12 14  1  0  0  0  0
 12 41  1  0  0  0  0
 12 42  1  0  0  0  0
 13 15  1  0  0  0  0
 13 43  1  0  0  0  0
 13 44  1  0  0  0  0
 14 45  1  0  0  0  0
 14 46  1  0  0  0  0
 15 47  1  0  0  0  0
 15 48  1  0  0  0  0
 16 49  1  0  0  0  0
 16 50  1  0  0  0  0
 17 51  1  0  0  0  0
 17 52  1  0  0  0  0
 17 53  1  0  0  0  0
 18 19  1  0  0  0  0
 18 20  2  0  0  0  0
 19 54  1  0  0  0  0
 20 55  1  0  0  0  0
 21 22  1  0  0  0  0
 22 24  1  0  0  0  0
 22 26  2  0  0  0  0
 23 24  2  0  0  0  0
 23 25  1  0  0  0  0
 23 27  1  0  0  0  0
 24 58  1  0  0  0  0
 25 56  1  0  0  0  0
 25 57  1  0  0  0  0
 26 28  1  0  0  0  0
 26 59  1  0  0  0  0
 27 28  2  0  0  0  0
 27 60  1  0  0  0  0
 28 61  1  0  0  0  0
 29 33  1  0  0  0  0
 30 31  1  0  0  0  0
 30 32  1  0  0  0  0
 31 34  1  0  0  0  0
 31 35  2  0  0  0  0
 32 33  2  0  0  0  0
 32 62  1  0  0  0  0
 33 63  1  0  0  0  0
 34 36  2  0  0  0  0
 34 64  1  0  0  0  0
 35 37  1  0  0  0  0
 35 65  1  0  0  0  0
 36 38  1  0  0  0  0
 36 39  1  0  0  0  0
 37 38  2  0  0  0  0
 37 66  1  0  0  0  0
 38 67  1  0  0  0  0
M  END
> <PUBCHEM_COMPOUND_CID>
46700774

> <PUBCHEM_COMPOUND_CANONICALIZED>
1

> <PUBCHEM_CACTVS_COMPLEXITY>
880

> <PUBCHEM_CACTVS_HBOND_ACCEPTOR>
8

> <PUBCHEM_CACTVS_HBOND_DONOR>
2

> <PUBCHEM_CACTVS_ROTATABLE_BOND>
7

> <PUBCHEM_CACTVS_SUBSKEYS>
AAADceB7sAAEAAAAAAAAAAAAAAAAAAAAAAA8eIECAAAAAAAB0AAAHgAICAAADQzhmwY/lpcIFAC4BzN3dASyiCkxQKAb2CA7RNiOqKLA2VGHLAjsjgLYia8wgMAOAAACAAAAAAAAAAQAAAAAAAAAAAAAAA==

> <PUBCHEM_IUPAC_OPENEYE_NAME>
3-[1-[[3-[5-[(1-methyl-4-piperidyl)methoxy]pyrimidin-2-yl]phenyl]methyl]-6-oxo-pyridazin-3-yl]benzonitrile;hydrate;hydrochloride

> <PUBCHEM_IUPAC_CAS_NAME>
3-[1-[[3-[5-[(1-methyl-4-piperidinyl)methoxy]-2-pyrimidinyl]phenyl]methyl]-6-oxo-3-pyridazinyl]benzonitrile;hydrate;hydrochloride

> <PUBCHEM_IUPAC_NAME_MARKUP>
3-[1-[[3-[5-[(1-methylpiperidin-4-yl)methoxy]pyrimidin-2-yl]phenyl]methyl]-6-oxopyridazin-3-yl]benzonitrile;hydrate;hydrochloride

> <PUBCHEM_IUPAC_NAME>
3-[1-[[3-[5-[(1-methylpiperidin-4-yl)methoxy]pyrimidin-2-yl]phenyl]methyl]-6-oxopyridazin-3-yl]benzonitrile;hydrate;hydrochloride

> <PUBCHEM_IUPAC_SYSTEMATIC_NAME>
3-[1-[[3-[5-[(1-methylpiperidin-4-yl)methoxy]pyrimidin-2-yl]phenyl]methyl]-6-oxidanylidene-pyridazin-3-yl]benzenecarbonitrile;hydrate;hydrochloride

> <PUBCHEM_IUPAC_TRADITIONAL_NAME>
3-[6-keto-1-[3-[5-[(1-methyl-4-piperidyl)methoxy]pyrimidin-2-yl]benzyl]pyridazin-3-yl]benzonitrile;hydrate;hydrochloride

> <PUBCHEM_IUPAC_INCHI>
InChI=1S/C29H28N6O2.ClH.H2O/c1-34-12-10-21(11-13-34)20-37-26-17-31-29(32-18-26)25-7-3-5-23(15-25)19-35-28(36)9-8-27(33-35)24-6-2-4-22(14-24)16-30;;/h2-9,14-15,17-18,21H,10-13,19-20H2,1H3;1H;1H2

> <PUBCHEM_IUPAC_INCHIKEY>
KZVOMLRKFJUTLK-UHFFFAOYSA-N

> <PUBCHEM_EXACT_MASS>
546.2146166

> <PUBCHEM_MOLECULAR_FORMULA>
C29H31ClN6O3

> <PUBCHEM_MOLECULAR_WEIGHT>
547.0

> <PUBCHEM_OPENEYE_CAN_SMILES>
CN1CCC(CC1)COC2=CN=C(N=C2)C3=CC=CC(=C3)CN4C(=O)C=CC(=N4)C5=CC=CC(=C5)C#N.O.Cl

> <PUBCHEM_OPENEYE_ISO_SMILES>
CN1CCC(CC1)COC2=CN=C(N=C2)C3=CC=CC(=C3)CN4C(=O)C=CC(=N4)C5=CC=CC(=C5)C#N.O.Cl

> <PUBCHEM_CACTVS_TPSA>
95.7

> <PUBCHEM_MONOISOTOPIC_WEIGHT>
546.2146166

> <PUBCHEM_TOTAL_CHARGE>
0

> <PUBCHEM_HEAVY_ATOM_COUNT>
39

> <PUBCHEM_ATOM_DEF_STEREO_COUNT>
0

> <PUBCHEM_ATOM_UDEF_STEREO_COUNT>
0

> <PUBCHEM_BOND_DEF_STEREO_COUNT>
0

> <PUBCHEM_BOND_UDEF_STEREO_COUNT>
0

> <PUBCHEM_ISOTOPIC_ATOM_COUNT>
0

> <PUBCHEM_COMPONENT_COUNT>
3

> <PUBCHEM_CACTVS_TAUTO_COUNT>
-1

> <PUBCHEM_COORDINATE_TYPE>
1
5
255

> <PUBCHEM_BONDANNOTATIONS>
18  19  8
18  20  8
22  24  8
22  26  8
23  24  8
23  27  8
26  28  8
27  28  8
29  33  8
30  32  8
31  34  8
31  35  8
32  33  8
34  36  8
35  37  8
36  38  8
37  38  8
6  19  8
6  21  8
7  20  8
7  21  8
8  29  8
8  9  8
9  30  8

$$$$
50914062
  -OEChem-11282412102D

 41 44  0     1  0  0  0  0  0999 V2000
    6.8772   -1.7861    0.0000 O   0  0  0  0  0  0  0  0  0  0  0  0
    5.3772   -2.6521    0.0000 N   0  0  0  0  0  0  0  0  0  0  0  0
    4.1701   -0.4061    0.0000 N   0  0  3  0  0  0  0  0  0  0  0  0
    2.5878    0.2983    0.0000 N   0  0  0  0  0  0  0  0  0  0  0  0
    3.9876    2.9281    0.0000 N   0  0  0  0  0  0  0  0  0  0  0  0
    2.4067    2.0209    0.0000 N   0  0  0  0  0  0  0  0  0  0  0  0
    8.8772   -3.5181    0.0000 N   0  0  0  0  0  0  0  0  0  0  0  0
    4.6701   -1.9450    0.0000 C   0  0  1  0  0  0  0  0  0  0  0  0
    3.9630   -2.6521    0.0000 C   0  0  2  0  0  0  0  0  0  0  0  0
    5.4791   -1.3572    0.0000 C   0  0  0  0  0  0  0  0  0  0  0  0
    4.6701   -3.3592    0.0000 C   0  0  0  0  0  0  0  0  0  0  0  0
    3.8611   -1.3572    0.0000 C   0  0  0  0  0  0  0  0  0  0  0  0
    5.1701   -0.4061    0.0000 C   0  0  0  0  0  0  0  0  0  0  0  0
    2.9630   -2.6521    0.0000 C   0  0  0  0  0  0  0  0  0  0  0  0
    6.3772   -2.6521    0.0000 C   0  0  0  0  0  0  0  0  0  0  0  0
    3.5823    0.4029    0.0000 C   0  0  0  0  0  0  0  0  0  0  0  0
    6.8772   -3.5181    0.0000 C   0  0  0  0  0  0  0  0  0  0  0  0
    3.9890    1.3164    0.0000 C   0  0  0  0  0  0  0  0  0  0  0  0
    3.4013    2.1254    0.0000 C   0  0  0  0  0  0  0  0  0  0  0  0
    4.9337    1.6260    0.0000 C   0  0  0  0  0  0  0  0  0  0  0  0
    7.8772   -3.5181    0.0000 C   0  0  0  0  0  0  0  0  0  0  0  0
    2.0000    1.1074    0.0000 C   0  0  0  0  0  0  0  0  0  0  0  0
    4.9328    2.6201    0.0000 C   0  0  0  0  0  0  0  0  0  0  0  0
    3.7257   -2.0793    0.0000 H   0  0  0  0  0  0  0  0  0  0  0  0
    5.7891   -1.8941    0.0000 H   0  0  0  0  0  0  0  0  0  0  0  0
    6.0455   -1.1050    0.0000 H   0  0  0  0  0  0  0  0  0  0  0  0
    4.2317   -3.7976    0.0000 H   0  0  0  0  0  0  0  0  0  0  0  0
    5.1085   -3.7976    0.0000 H   0  0  0  0  0  0  0  0  0  0  0  0
    3.2947   -1.1050    0.0000 H   0  0  0  0  0  0  0  0  0  0  0  0
    3.5511   -1.8941    0.0000 H   0  0  0  0  0  0  0  0  0  0  0  0
    5.7765   -0.2772    0.0000 H   0  0  0  0  0  0  0  0  0  0  0  0
    5.1053    0.2105    0.0000 H   0  0  0  0  0  0  0  0  0  0  0  0
    2.9630   -2.0321    0.0000 H   0  0  0  0  0  0  0  0  0  0  0  0
    2.3430   -2.6521    0.0000 H   0  0  0  0  0  0  0  0  0  0  0  0
    2.9630   -3.2721    0.0000 H   0  0  0  0  0  0  0  0  0  0  0  0
    6.2946   -3.7302    0.0000 H   0  0  0  0  0  0  0  0  0  0  0  0
    6.9849   -4.1287    0.0000 H   0  0  0  0  0  0  0  0  0  0  0  0
    5.4359    1.2625    0.0000 H   0  0  0  0  0  0  0  0  0  0  0  0
    1.3834    1.0426    0.0000 H   0  0  0  0  0  0  0  0  0  0  0  0
    3.7971    3.5181    0.0000 H   0  0  0  0  0  0  0  0  0  0  0  0
    5.4344    2.9846    0.0000 H   0  0  0  0  0  0  0  0  0  0  0  0
  1 15  2  0  0  0  0
  8  2  1  6  0  0  0
  2 11  1  0  0  0  0
  2 15  1  0  0  0  0
  3 12  1  0  0  0  0
  3 13  1  0  0  0  0
  3 16  1  0  0  0  0
  4 16  2  0  0  0  0
  4 22  1  0  0  0  0
  5 19  1  0  0  0  0
  5 23  1  0  0  0  0
  5 40  1  0  0  0  0
  6 19  1  0  0  0  0
  6 22  2  0  0  0  0
  7 21  3  0  0  0  0
  8  9  1  0  0  0  0
  8 10  1  0  0  0  0
  8 12  1  0  0  0  0
  9 11  1  0  0  0  0
  9 14  1  6  0  0  0
  9 24  1  0  0  0  0
 10 13  1  0  0  0  0
 10 25  1  0  0  0  0
 10 26  1  0  0  0  0
 11 27  1  0  0  0  0
 11 28  1  0  0  0  0
 12 29  1  0  0  0  0
 12 30  1  0  0  0  0
 13 31  1  0  0  0  0
 13 32  1  0  0  0  0
 14 33  1  0  0  0  0
 14 34  1  0  0  0  0
 14 35  1  0  0  0  0
 15 17  1  0  0  0  0
 16 18  1  0  0  0  0
 17 21  1  0  0  0  0
 17 36  1  0  0  0  0
 17 37  1  0  0  0  0
 18 19  2  0  0  0  0
 18 20  1  0  0  0  0
 20 23  2  0  0  0  0
 20 38  1  0  0  0  0
 22 39  1  0  0  0  0
 23 41  1  0  0  0  0
M  END
> <PUBCHEM_COMPOUND_CID>
50914062

> <PUBCHEM_COMPOUND_CANONICALIZED>
1

> <PUBCHEM_CACTVS_COMPLEXITY>
544

> <PUBCHEM_CACTVS_HBOND_ACCEPTOR>
5

> <PUBCHEM_CACTVS_HBOND_DONOR>
1

> <PUBCHEM_CACTVS_ROTATABLE_BOND>
2

> <PUBCHEM_CACTVS_SUBSKEYS>
AAADceB7oAAAAAAAAAAAAAAAAABYAWLAAAAsAAAAAAAAAFgB+AAAHgAQAAAADYjBmwQ/sN/JkAC4BjN3dACCgCmxAqAJ2aE4ZJiI6MJAyMEUBAhIFgLAQCAQAAAOgAAAAAAAAAAAAAAAAAAAAAAAAAAAAA==

> <PUBCHEM_IUPAC_OPENEYE_NAME>
3-[(3S,4R)-3-methyl-7-(7H-pyrrolo[2,3-d]pyrimidin-4-yl)-1,7-diazaspiro[3.4]octan-1-yl]-3-oxo-propanenitrile

> <PUBCHEM_IUPAC_CAS_NAME>
3-[(3S,4R)-3-methyl-7-(7H-pyrrolo[2,3-d]pyrimidin-4-yl)-1,7-diazaspiro[3.4]octan-1-yl]-3-oxopropanenitrile

> <PUBCHEM_IUPAC_NAME_MARKUP>
3-[(3<I>S</I>,4<I>R</I>)-3-methyl-7-(7<I>H</I>-pyrrolo[2,3-d]pyrimidin-4-yl)-1,7-diazaspiro[3.4]octan-1-yl]-3-oxopropanenitrile

> <PUBCHEM_IUPAC_NAME>
3-[(3S,4R)-3-methyl-7-(7H-pyrrolo[2,3-d]pyrimidin-4-yl)-1,7-diazaspiro[3.4]octan-1-yl]-3-oxopropanenitrile

> <PUBCHEM_IUPAC_SYSTEMATIC_NAME>
3-[(3S,4R)-3-methyl-7-(7H-pyrrolo[2,3-d]pyrimidin-4-yl)-1,7-diazaspiro[3.4]octan-1-yl]-3-oxidanylidene-propanenitrile

> <PUBCHEM_IUPAC_TRADITIONAL_NAME>
3-keto-3-[(3S,4R)-3-methyl-7-(7H-pyrrolo[2,3-d]pyrimidin-4-yl)-1,7-diazaspiro[3.4]octan-1-yl]propionitrile

> <PUBCHEM_IUPAC_INCHI>
InChI=1S/C16H18N6O/c1-11-8-22(13(23)2-5-17)16(11)4-7-21(9-16)15-12-3-6-18-14(12)19-10-20-15/h3,6,10-11H,2,4,7-9H2,1H3,(H,18,19,20)/t11-,16-/m0/s1

> <PUBCHEM_IUPAC_INCHIKEY>
LOWWYYZBZNSPDT-ZBEGNZNMSA-N

> <PUBCHEM_XLOGP3_AA>
1.1

> <PUBCHEM_EXACT_MASS>
310.15420922

> <PUBCHEM_MOLECULAR_FORMULA>
C16H18N6O

> <PUBCHEM_MOLECULAR_WEIGHT>
310.35

> <PUBCHEM_OPENEYE_CAN_SMILES>
CC1CN(C12CCN(C2)C3=NC=NC4=C3C=CN4)C(=O)CC#N

> <PUBCHEM_OPENEYE_ISO_SMILES>
C[C@H]1CN([C@]12CCN(C2)C3=NC=NC4=C3C=CN4)C(=O)CC#N

> <PUBCHEM_CACTVS_TPSA>
88.9

> <PUBCHEM_MONOISOTOPIC_WEIGHT>
310.15420922

> <PUBCHEM_TOTAL_CHARGE>
0

> <PUBCHEM_HEAVY_ATOM_COUNT>
23

> <PUBCHEM_ATOM_DEF_STEREO_COUNT>
2

> <PUBCHEM_ATOM_UDEF_STEREO_COUNT>
0

> <PUBCHEM_BOND_DEF_STEREO_COUNT>
0

> <PUBCHEM_BOND_UDEF_STEREO_COUNT>
0

> <PUBCHEM_ISOTOPIC_ATOM_COUNT>
0

> <PUBCHEM_COMPONENT_COUNT>
1

> <PUBCHEM_CACTVS_TAUTO_COUNT>
3

> <PUBCHEM_COORDINATE_TYPE>
1
5
255

> <PUBCHEM_BONDANNOTATIONS>
16  18  8
18  19  8
18  20  8
8  2  6
20  23  8
4  16  8
4  22  8
5  19  8
5  23  8
6  19  8
6  22  8
9  14  6

$$$$
56644522
  -OEChem-11282412102D

 61 65  0     0  0  0  0  0  0999 V2000
   11.6065    1.8853    0.0000 O   0  0  0  0  0  0  0  0  0  0  0  0
    9.7942    0.6900    0.0000 O   0  0  0  0  0  0  0  0  0  0  0  0
    9.7942   -2.3100    0.0000 O   0  0  0  0  0  0  0  0  0  0  0  0
    4.5981    1.6900    0.0000 N   0  0  0  0  0  0  0  0  0  0  0  0
    2.8660    0.6900    0.0000 N   0  0  0  0  0  0  0  0  0  0  0  0
    8.0622    3.6900    0.0000 N   0  0  0  0  0  0  0  0  0  0  0  0
    9.7942    3.6900    0.0000 N   0  0  0  0  0  0  0  0  0  0  0  0
    8.9282    2.1900    0.0000 N   0  0  0  0  0  0  0  0  0  0  0  0
    8.0622   -2.3100    0.0000 N   0  0  0  0  0  0  0  0  0  0  0  0
    4.5981    0.6900    0.0000 C   0  0  0  0  0  0  0  0  0  0  0  0
    3.7320    2.1900    0.0000 C   0  0  0  0  0  0  0  0  0  0  0  0
    3.7320    0.1900    0.0000 C   0  0  0  0  0  0  0  0  0  0  0  0
    2.8660    1.6900    0.0000 C   0  0  0  0  0  0  0  0  0  0  0  0
    5.4641    2.1900    0.0000 C   0  0  0  0  0  0  0  0  0  0  0  0
    2.0000    0.1900    0.0000 C   0  0  0  0  0  0  0  0  0  0  0  0
    5.4641    3.1900    0.0000 C   0  0  0  0  0  0  0  0  0  0  0  0
    6.3301    1.6900    0.0000 C   0  0  0  0  0  0  0  0  0  0  0  0
    6.3301    3.6900    0.0000 C   0  0  0  0  0  0  0  0  0  0  0  0
    7.1962    2.1900    0.0000 C   0  0  0  0  0  0  0  0  0  0  0  0
    7.1962    3.1900    0.0000 C   0  0  0  0  0  0  0  0  0  0  0  0
    8.9282    3.1900    0.0000 C   0  0  0  0  0  0  0  0  0  0  0  0
   10.6603    3.1900    0.0000 C   0  0  0  0  0  0  0  0  0  0  0  0
   10.6603    2.1900    0.0000 C   0  0  0  0  0  0  0  0  0  0  0  0
    9.7942    1.6900    0.0000 C   0  0  0  0  0  0  0  0  0  0  0  0
   11.6065    3.4947    0.0000 C   0  0  0  0  0  0  0  0  0  0  0  0
    8.9282    0.1900    0.0000 C   0  0  0  0  0  0  0  0  0  0  0  0
   12.1901    2.6900    0.0000 C   0  0  0  0  0  0  0  0  0  0  0  0
    8.9282   -0.8100    0.0000 C   0  0  0  0  0  0  0  0  0  0  0  0
    8.0622   -1.3100    0.0000 C   0  0  0  0  0  0  0  0  0  0  0  0
    8.0622    0.6900    0.0000 C   0  0  0  0  0  0  0  0  0  0  0  0
    7.1962   -0.8100    0.0000 C   0  0  0  0  0  0  0  0  0  0  0  0
    7.1962    0.1900    0.0000 C   0  0  0  0  0  0  0  0  0  0  0  0
    8.9282   -2.8100    0.0000 C   0  0  0  0  0  0  0  0  0  0  0  0
    8.9282   -3.8100    0.0000 C   0  0  0  0  0  0  0  0  0  0  0  0
    9.7942   -4.3100    0.0000 C   0  0  0  0  0  0  0  0  0  0  0  0
    4.8101    0.1074    0.0000 H   0  0  0  0  0  0  0  0  0  0  0  0
    5.2087    0.7977    0.0000 H   0  0  0  0  0  0  0  0  0  0  0  0
    4.1306    2.6650    0.0000 H   0  0  0  0  0  0  0  0  0  0  0  0
    3.3335    2.6650    0.0000 H   0  0  0  0  0  0  0  0  0  0  0  0
    3.3335   -0.2849    0.0000 H   0  0  0  0  0  0  0  0  0  0  0  0
    4.1306   -0.2849    0.0000 H   0  0  0  0  0  0  0  0  0  0  0  0
    2.6540    2.2726    0.0000 H   0  0  0  0  0  0  0  0  0  0  0  0
    2.2554    1.5823    0.0000 H   0  0  0  0  0  0  0  0  0  0  0  0
    1.6900    0.7269    0.0000 H   0  0  0  0  0  0  0  0  0  0  0  0
    1.4631   -0.1200    0.0000 H   0  0  0  0  0  0  0  0  0  0  0  0
    2.3100   -0.3469    0.0000 H   0  0  0  0  0  0  0  0  0  0  0  0
    4.9272    3.5000    0.0000 H   0  0  0  0  0  0  0  0  0  0  0  0
    6.3301    1.0700    0.0000 H   0  0  0  0  0  0  0  0  0  0  0  0
    6.3301    4.3100    0.0000 H   0  0  0  0  0  0  0  0  0  0  0  0
    7.7331    1.8800    0.0000 H   0  0  0  0  0  0  0  0  0  0  0  0
    8.0622    4.3100    0.0000 H   0  0  0  0  0  0  0  0  0  0  0  0
   11.7991    4.0841    0.0000 H   0  0  0  0  0  0  0  0  0  0  0  0
   12.8101    2.6900    0.0000 H   0  0  0  0  0  0  0  0  0  0  0  0
    9.4651   -1.1200    0.0000 H   0  0  0  0  0  0  0  0  0  0  0  0
    8.0622    1.3100    0.0000 H   0  0  0  0  0  0  0  0  0  0  0  0
    6.6592   -1.1200    0.0000 H   0  0  0  0  0  0  0  0  0  0  0  0
    6.6592    0.5000    0.0000 H   0  0  0  0  0  0  0  0  0  0  0  0
    7.5252   -2.6200    0.0000 H   0  0  0  0  0  0  0  0  0  0  0  0
    8.3913   -4.1200    0.0000 H   0  0  0  0  0  0  0  0  0  0  0  0
    9.7942   -4.9300    0.0000 H   0  0  0  0  0  0  0  0  0  0  0  0
   10.3312   -4.0000    0.0000 H   0  0  0  0  0  0  0  0  0  0  0  0
  1 23  1  0  0  0  0
  1 27  1  0  0  0  0
  2 24  1  0  0  0  0
  2 26  1  0  0  0  0
  3 33  2  0  0  0  0
  4 10  1  0  0  0  0
  4 11  1  0  0  0  0
  4 14  1  0  0  0  0
  5 12  1  0  0  0  0
  5 13  1  0  0  0  0
  5 15  1  0  0  0  0
  6 20  1  0  0  0  0
  6 21  1  0  0  0  0
  6 51  1  0  0  0  0
  7 21  2  0  0  0  0
  7 22  1  0  0  0  0
  8 21  1  0  0  0  0
  8 24  2  0  0  0  0
  9 29  1  0  0  0  0
  9 33  1  0  0  0  0
  9 58  1  0  0  0  0
 10 12  1  0  0  0  0
 10 36  1  0  0  0  0
 10 37  1  0  0  0  0
 11 13  1  0  0  0  0
 11 38  1  0  0  0  0
 11 39  1  0  0  0  0
 12 40  1  0  0  0  0
 12 41  1  0  0  0  0
 13 42  1  0  0  0  0
 13 43  1  0  0  0  0
 14 16  2  0  0  0  0
 14 17  1  0  0  0  0
 15 44  1  0  0  0  0
 15 45  1  0  0  0  0
 15 46  1  0  0  0  0
 16 18  1  0  0  0  0
 16 47  1  0  0  0  0
 17 19  2  0  0  0  0
 17 48  1  0  0  0  0
 18 20  2  0  0  0  0
 18 49  1  0  0  0  0
 19 20  1  0  0  0  0
 19 50  1  0  0  0  0
 22 23  2  0  0  0  0
 22 25  1  0  0  0  0
 23 24  1  0  0  0  0
 25 27  2  0  0  0  0
 25 52  1  0  0  0  0
 26 28  1  0  0  0  0
 26 30  2  0  0  0  0
 27 53  1  0  0  0  0
 28 29  2  0  0  0  0
 28 54  1  0  0  0  0
 29 31  1  0  0  0  0
 30 32  1  0  0  0  0
 30 55  1  0  0  0  0
 31 32  2  0  0  0  0
 31 56  1  0  0  0  0
 32 57  1  0  0  0  0
 33 34  1  0  0  0  0
 34 35  2  0  0  0  0
 34 59  1  0  0  0  0
 35 60  1  0  0  0  0
 35 61  1  0  0  0  0
M  END
> <PUBCHEM_COMPOUND_CID>
56644522

> <PUBCHEM_COMPOUND_CANONICALIZED>
1

> <PUBCHEM_CACTVS_COMPLEXITY>
709

> <PUBCHEM_CACTVS_HBOND_ACCEPTOR>
8

> <PUBCHEM_CACTVS_HBOND_DONOR>
2

> <PUBCHEM_CACTVS_ROTATABLE_BOND>
7

> <PUBCHEM_CACTVS_SUBSKEYS>
AAADceB7sAAAAAAAAAAAAAAAAAAAASAAAAA8eIEAAAAAAFgB/AAAHgAQAAAACAzhlgYz1rfIFECoAa1y9AaCiCknYqAJmCH/7NiPbrrE/f+fParu1Bva6eeYdQsAAACAAgAAAAAAAQAEAAAAAAAAAAAAAA==

> <PUBCHEM_IUPAC_OPENEYE_NAME>
N-[3-[2-[4-(4-methylpiperazin-1-yl)anilino]furo[3,2-d]pyrimidin-4-yl]oxyphenyl]prop-2-enamide

> <PUBCHEM_IUPAC_CAS_NAME>
N-[3-[[2-[4-(4-methyl-1-piperazinyl)anilino]-4-furo[3,2-d]pyrimidinyl]oxy]phenyl]-2-propenamide

> <PUBCHEM_IUPAC_NAME_MARKUP>
<I>N</I>-[3-[2-[4-(4-methylpiperazin-1-yl)anilino]furo[3,2-d]pyrimidin-4-yl]oxyphenyl]prop-2-enamide

> <PUBCHEM_IUPAC_NAME>
N-[3-[2-[4-(4-methylpiperazin-1-yl)anilino]furo[3,2-d]pyrimidin-4-yl]oxyphenyl]prop-2-enamide

> <PUBCHEM_IUPAC_SYSTEMATIC_NAME>
N-[3-[2-[[4-(4-methylpiperazin-1-yl)phenyl]amino]furo[3,2-d]pyrimidin-4-yl]oxyphenyl]prop-2-enamide

> <PUBCHEM_IUPAC_TRADITIONAL_NAME>
N-[3-[2-[4-(4-methylpiperazino)anilino]furo[3,2-d]pyrimidin-4-yl]oxyphenyl]acrylamide

> <PUBCHEM_IUPAC_INCHI>
InChI=1S/C26H26N6O3/c1-3-23(33)27-19-5-4-6-21(17-19)35-25-24-22(11-16-34-24)29-26(30-25)28-18-7-9-20(10-8-18)32-14-12-31(2)13-15-32/h3-11,16-17H,1,12-15H2,2H3,(H,27,33)(H,28,29,30)

> <PUBCHEM_IUPAC_INCHIKEY>
LZMJNVRJMFMYQS-UHFFFAOYSA-N

> <PUBCHEM_XLOGP3_AA>
4.1

> <PUBCHEM_EXACT_MASS>
470.20663871

> <PUBCHEM_MOLECULAR_FORMULA>
C26H26N6O3

> <PUBCHEM_MOLECULAR_WEIGHT>
470.5

> <PUBCHEM_OPENEYE_CAN_SMILES>
CN1CCN(CC1)C2=CC=C(C=C2)NC3=NC4=C(C(=N3)OC5=CC=CC(=C5)NC(=O)C=C)OC=C4

> <PUBCHEM_OPENEYE_ISO_SMILES>
CN1CCN(CC1)C2=CC=C(C=C2)NC3=NC4=C(C(=N3)OC5=CC=CC(=C5)NC(=O)C=C)OC=C4

> <PUBCHEM_CACTVS_TPSA>
95.8

> <PUBCHEM_MONOISOTOPIC_WEIGHT>
470.20663871

> <PUBCHEM_TOTAL_CHARGE>
0

> <PUBCHEM_HEAVY_ATOM_COUNT>
35

> <PUBCHEM_ATOM_DEF_STEREO_COUNT>
0

> <PUBCHEM_ATOM_UDEF_STEREO_COUNT>
0

> <PUBCHEM_BOND_DEF_STEREO_COUNT>
0

> <PUBCHEM_BOND_UDEF_STEREO_COUNT>
0

> <PUBCHEM_ISOTOPIC_ATOM_COUNT>
0

> <PUBCHEM_COMPONENT_COUNT>
1

> <PUBCHEM_CACTVS_TAUTO_COUNT>
-1

> <PUBCHEM_COORDINATE_TYPE>
1
5
255

> <PUBCHEM_BONDANNOTATIONS>
1  23  8
1  27  8
14  16  8
14  17  8
16  18  8
17  19  8
18  20  8
19  20  8
22  23  8
22  25  8
23  24  8
25  27  8
26  28  8
26  30  8
28  29  8
29  31  8
30  32  8
31  32  8
7  21  8
7  22  8
8  21  8
8  24  8

$$$$
73388818
  -OEChem-11282412102D

 89 95  0     1  0  0  0  0  0999 V2000
    6.6353    3.4182    0.0000 F   0  0  0  0  0  0  0  0  0  0  0  0
   10.5384   -8.1708    0.0000 O   0  0  0  0  0  0  0  0  0  0  0  0
    7.9244   -0.1729    0.0000 O   0  0  0  0  0  0  0  0  0  0  0  0
    5.9209    6.8078    0.0000 O   0  0  0  0  0  0  0  0  0  0  0  0
    9.7884   -5.8760    0.0000 N   0  0  0  0  0  0  0  0  0  0  0  0
    9.1671   -3.9750    0.0000 N   0  0  0  0  0  0  0  0  0  0  0  0
    6.2781   -0.7110    0.0000 N   0  0  0  0  0  0  0  0  0  0  0  0
    4.6783    1.3963    0.0000 N   0  0  0  0  0  0  0  0  0  0  0  0
    5.2619    2.2010    0.0000 N   0  0  0  0  0  0  0  0  0  0  0  0
    2.8660    1.2010    0.0000 N   0  0  0  0  0  0  0  0  0  0  0  0
    2.0000    2.7010    0.0000 N   0  0  0  0  0  0  0  0  0  0  0  0
    2.8660    4.2010    0.0000 N   0  0  0  0  0  0  0  0  0  0  0  0
    6.2316   -3.3563    0.0000 N   0  0  0  0  0  0  0  0  0  0  0  0
   10.0991   -6.8265    0.0000 C   0  0  0  0  0  0  0  0  0  0  0  0
    8.8099   -5.6698    0.0000 C   0  0  0  0  0  0  0  0  0  0  0  0
   10.4563   -5.1317    0.0000 C   0  0  0  0  0  0  0  0  0  0  0  0
    8.4993   -4.7193    0.0000 C   0  0  0  0  0  0  0  0  0  0  0  0
   10.1456   -4.1812    0.0000 C   0  0  0  0  0  0  0  0  0  0  0  0
    8.8564   -3.0245    0.0000 C   0  0  0  0  0  0  0  0  0  0  0  0
   10.9909   -7.2790    0.0000 C   0  0  0  0  0  0  0  0  0  0  0  0
    9.6466   -7.7183    0.0000 C   0  0  0  0  0  0  0  0  0  0  0  0
    4.9889    0.4458    0.0000 C   0  0  1  0  0  0  0  0  0  0  0  0
    9.8070   -2.7138    0.0000 C   0  0  0  0  0  0  0  0  0  0  0  0
    7.9059   -3.3351    0.0000 C   0  0  0  0  0  0  0  0  0  0  0  0
    8.5458   -2.0739    0.0000 C   0  0  0  0  0  0  0  0  0  0  0  0
    5.9674    0.2395    0.0000 C   0  0  0  0  0  0  0  0  0  0  0  0
    4.3211   -0.2985    0.0000 C   0  0  0  0  0  0  0  0  0  0  0  0
    4.6318   -1.2491    0.0000 C   0  0  0  0  0  0  0  0  0  0  0  0
    5.6103   -1.4553    0.0000 C   0  0  0  0  0  0  0  0  0  0  0  0
    7.5673   -1.8677    0.0000 C   0  0  0  0  0  0  0  0  0  0  0  0
    7.2566   -0.9172    0.0000 C   0  0  0  0  0  0  0  0  0  0  0  0
    3.7320    1.7010    0.0000 C   0  0  0  0  0  0  0  0  0  0  0  0
    3.7320    2.7010    0.0000 C   0  0  0  0  0  0  0  0  0  0  0  0
    4.6783    3.0057    0.0000 C   0  0  0  0  0  0  0  0  0  0  0  0
    6.8994   -2.6120    0.0000 C   0  0  0  0  0  0  0  0  0  0  0  0
    2.8660    3.2010    0.0000 C   0  0  0  0  0  0  0  0  0  0  0  0
    4.9889    3.9563    0.0000 C   0  0  0  0  0  0  0  0  0  0  0  0
    2.0000    1.7010    0.0000 C   0  0  0  0  0  0  0  0  0  0  0  0
    5.9674    4.1625    0.0000 C   0  0  0  0  0  0  0  0  0  0  0  0
    4.3211    4.7006    0.0000 C   0  0  0  0  0  0  0  0  0  0  0  0
    6.2781    5.1130    0.0000 C   0  0  0  0  0  0  0  0  0  0  0  0
    4.6318    5.6511    0.0000 C   0  0  0  0  0  0  0  0  0  0  0  0
    5.6103    5.8573    0.0000 C   0  0  0  0  0  0  0  0  0  0  0  0
    6.8994    7.0140    0.0000 C   0  0  0  0  0  0  0  0  0  0  0  0
    7.2101    7.9646    0.0000 C   0  0  0  0  0  0  0  0  0  0  0  0
    7.5673    6.2697    0.0000 C   0  0  0  0  0  0  0  0  0  0  0  0
    8.1886    8.1708    0.0000 C   0  0  0  0  0  0  0  0  0  0  0  0
    8.5458    6.4760    0.0000 C   0  0  0  0  0  0  0  0  0  0  0  0
    8.8564    7.4265    0.0000 C   0  0  0  0  0  0  0  0  0  0  0  0
    9.4809   -6.7790    0.0000 H   0  0  0  0  0  0  0  0  0  0  0  0
    8.1961   -5.7572    0.0000 H   0  0  0  0  0  0  0  0  0  0  0  0
    8.7894   -6.2895    0.0000 H   0  0  0  0  0  0  0  0  0  0  0  0
   10.8388   -5.6196    0.0000 H   0  0  0  0  0  0  0  0  0  0  0  0
   11.0032   -4.8397    0.0000 H   0  0  0  0  0  0  0  0  0  0  0  0
    8.1167   -4.2314    0.0000 H   0  0  0  0  0  0  0  0  0  0  0  0
    7.9523   -5.0113    0.0000 H   0  0  0  0  0  0  0  0  0  0  0  0
   10.7594   -4.0938    0.0000 H   0  0  0  0  0  0  0  0  0  0  0  0
   10.1662   -3.5615    0.0000 H   0  0  0  0  0  0  0  0  0  0  0  0
   11.5438   -7.5595    0.0000 H   0  0  0  0  0  0  0  0  0  0  0  0
   11.2714   -6.7261    0.0000 H   0  0  0  0  0  0  0  0  0  0  0  0
    9.0937   -7.4378    0.0000 H   0  0  0  0  0  0  0  0  0  0  0  0
    9.3661   -8.2712    0.0000 H   0  0  0  0  0  0  0  0  0  0  0  0
    5.4030    0.9072    0.0000 H   0  0  0  0  0  0  0  0  0  0  0  0
    9.9996   -3.3031    0.0000 H   0  0  0  0  0  0  0  0  0  0  0  0
   10.3963   -2.5212    0.0000 H   0  0  0  0  0  0  0  0  0  0  0  0
    9.6144   -2.1245    0.0000 H   0  0  0  0  0  0  0  0  0  0  0  0
    7.7133   -2.7458    0.0000 H   0  0  0  0  0  0  0  0  0  0  0  0
    7.3166   -3.5277    0.0000 H   0  0  0  0  0  0  0  0  0  0  0  0
    8.0985   -3.9244    0.0000 H   0  0  0  0  0  0  0  0  0  0  0  0
    8.9598   -1.6125    0.0000 H   0  0  0  0  0  0  0  0  0  0  0  0
    6.5812    0.3269    0.0000 H   0  0  0  0  0  0  0  0  0  0  0  0
    5.9880    0.8592    0.0000 H   0  0  0  0  0  0  0  0  0  0  0  0
    3.9385    0.1894    0.0000 H   0  0  0  0  0  0  0  0  0  0  0  0
    3.7742   -0.5906    0.0000 H   0  0  0  0  0  0  0  0  0  0  0  0
    4.0179   -1.3364    0.0000 H   0  0  0  0  0  0  0  0  0  0  0  0
    4.6112   -1.8687    0.0000 H   0  0  0  0  0  0  0  0  0  0  0  0
    5.3790   -2.0305    0.0000 H   0  0  0  0  0  0  0  0  0  0  0  0
    6.1366   -1.7829    0.0000 H   0  0  0  0  0  0  0  0  0  0  0  0
    1.4631    1.3910    0.0000 H   0  0  0  0  0  0  0  0  0  0  0  0
    3.7144    4.5727    0.0000 H   0  0  0  0  0  0  0  0  0  0  0  0
    2.3291    4.5110    0.0000 H   0  0  0  0  0  0  0  0  0  0  0  0
    3.4030    4.5110    0.0000 H   0  0  0  0  0  0  0  0  0  0  0  0
    6.8848    5.2409    0.0000 H   0  0  0  0  0  0  0  0  0  0  0  0
    4.2177    6.1126    0.0000 H   0  0  0  0  0  0  0  0  0  0  0  0
    6.7960    8.4260    0.0000 H   0  0  0  0  0  0  0  0  0  0  0  0
    7.3747    5.6804    0.0000 H   0  0  0  0  0  0  0  0  0  0  0  0
    8.3812    8.7601    0.0000 H   0  0  0  0  0  0  0  0  0  0  0  0
    8.9598    6.0145    0.0000 H   0  0  0  0  0  0  0  0  0  0  0  0
    9.4631    7.5543    0.0000 H   0  0  0  0  0  0  0  0  0  0  0  0
  1 39  1  0  0  0  0
  2 20  1  0  0  0  0
  2 21  1  0  0  0  0
  3 31  2  0  0  0  0
  4 43  1  0  0  0  0
  4 44  1  0  0  0  0
  5 14  1  0  0  0  0
  5 15  1  0  0  0  0
  5 16  1  0  0  0  0
  6 17  1  0  0  0  0
  6 18  1  0  0  0  0
  6 19  1  0  0  0  0
  7 26  1  0  0  0  0
  7 29  1  0  0  0  0
  7 31  1  0  0  0  0
  8  9  1  0  0  0  0
 22  8  1  1  0  0  0
  8 32  1  0  0  0  0
  9 34  2  0  0  0  0
 10 32  2  0  0  0  0
 10 38  1  0  0  0  0
 11 36  1  0  0  0  0
 11 38  2  0  0  0  0
 12 36  1  0  0  0  0
 12 81  1  0  0  0  0
 12 82  1  0  0  0  0
 13 35  3  0  0  0  0
 14 20  1  0  0  0  0
 14 21  1  0  0  0  0
 14 50  1  0  0  0  0
 15 17  1  0  0  0  0
 15 51  1  0  0  0  0
 15 52  1  0  0  0  0
 16 18  1  0  0  0  0
 16 53  1  0  0  0  0
 16 54  1  0  0  0  0
 17 55  1  0  0  0  0
 17 56  1  0  0  0  0
 18 57  1  0  0  0  0
 18 58  1  0  0  0  0
 19 23  1  0  0  0  0
 19 24  1  0  0  0  0
 19 25  1  0  0  0  0
 20 59  1  0  0  0  0
 20 60  1  0  0  0  0
 21 61  1  0  0  0  0
 21 62  1  0  0  0  0
 22 26  1  0  0  0  0
 22 27  1  0  0  0  0
 22 63  1  0  0  0  0
 23 64  1  0  0  0  0
 23 65  1  0  0  0  0
 23 66  1  0  0  0  0
 24 67  1  0  0  0  0
 24 68  1  0  0  0  0
 24 69  1  0  0  0  0
 25 30  2  0  0  0  0
 25 70  1  0  0  0  0
 26 71  1  0  0  0  0
 26 72  1  0  0  0  0
 27 28  1  0  0  0  0
 27 73  1  0  0  0  0
 27 74  1  0  0  0  0
 28 29  1  0  0  0  0
 28 75  1  0  0  0  0
 28 76  1  0  0  0  0
 29 77  1  0  0  0  0
 29 78  1  0  0  0  0
 30 31  1  0  0  0  0
 30 35  1  0  0  0  0
 32 33  1  0  0  0  0
 33 34  1  0  0  0  0
 33 36  2  0  0  0  0
 34 37  1  0  0  0  0
 37 39  2  0  0  0  0
 37 40  1  0  0  0  0
 38 79  1  0  0  0  0
 39 41  1  0  0  0  0
 40 42  2  0  0  0  0
 40 80  1  0  0  0  0
 41 43  2  0  0  0  0
 41 83  1  0  0  0  0
 42 43  1  0  0  0  0
 42 84  1  0  0  0  0
 44 45  2  0  0  0  0
 44 46  1  0  0  0  0
 45 47  1  0  0  0  0
 45 85  1  0  0  0  0
 46 48  2  0  0  0  0
 46 86  1  0  0  0  0
 47 49  2  0  0  0  0
 47 87  1  0  0  0  0
 48 49  1  0  0  0  0
 48 88  1  0  0  0  0
 49 89  1  0  0  0  0
M  END
> <PUBCHEM_COMPOUND_CID>
73388818

> <PUBCHEM_COMPOUND_CANONICALIZED>
1

> <PUBCHEM_CACTVS_COMPLEXITY>
1230

> <PUBCHEM_CACTVS_HBOND_ACCEPTOR>
11

> <PUBCHEM_CACTVS_HBOND_DONOR>
1

> <PUBCHEM_CACTVS_ROTATABLE_BOND>
8

> <PUBCHEM_CACTVS_SUBSKEYS>
AAADcfB/8QAAAAAAAAAAAAAAAABIAWAAAAA8eLECAAAAAFgB/AAAHwAYAAAADKzhnw43tt9IFAC6BydzdACyjCsxoKAd2CEuTNiO7qLE+duXvCjszhPY6aeQ0OEOIAAAAAAAAABAAAAAAAAAAAAAAAAAAA==

> <PUBCHEM_IUPAC_OPENEYE_NAME>
(E)-2-[(3R)-3-[4-amino-3-(2-fluoro-4-phenoxy-phenyl)pyrazolo[3,4-d]pyrimidin-1-yl]piperidine-1-carbonyl]-4-methyl-4-[4-(oxetan-3-yl)piperazin-1-yl]pent-2-enenitrile

> <PUBCHEM_IUPAC_CAS_NAME>
(E)-2-[[(3R)-3-[4-amino-3-(2-fluoro-4-phenoxyphenyl)-1-pyrazolo[3,4-d]pyrimidinyl]-1-piperidinyl]-oxomethyl]-4-methyl-4-[4-(3-oxetanyl)-1-piperazinyl]-2-pentenenitrile

> <PUBCHEM_IUPAC_NAME_MARKUP>
(<I>E</I>)-2-[(3<I>R</I>)-3-[4-amino-3-(2-fluoro-4-phenoxyphenyl)pyrazolo[3,4-d]pyrimidin-1-yl]piperidine-1-carbonyl]-4-methyl-4-[4-(oxetan-3-yl)piperazin-1-yl]pent-2-enenitrile

> <PUBCHEM_IUPAC_NAME>
(E)-2-[(3R)-3-[4-amino-3-(2-fluoro-4-phenoxyphenyl)pyrazolo[3,4-d]pyrimidin-1-yl]piperidine-1-carbonyl]-4-methyl-4-[4-(oxetan-3-yl)piperazin-1-yl]pent-2-enenitrile

> <PUBCHEM_IUPAC_SYSTEMATIC_NAME>
(E)-2-[(3R)-3-[4-azanyl-3-(2-fluoranyl-4-phenoxy-phenyl)pyrazolo[3,4-d]pyrimidin-1-yl]piperidin-1-yl]carbonyl-4-methyl-4-[4-(oxetan-3-yl)piperazin-1-yl]pent-2-enenitrile

> <PUBCHEM_IUPAC_TRADITIONAL_NAME>
(E)-2-[(3R)-3-[4-amino-3-(2-fluoro-4-phenoxy-phenyl)pyrazolo[3,4-d]pyrimidin-1-yl]piperidine-1-carbonyl]-4-methyl-4-[4-(oxetan-3-yl)piperazino]pent-2-enenitrile

> <PUBCHEM_IUPAC_INCHI>
InChI=1S/C36H40FN9O3/c1-36(2,45-15-13-43(14-16-45)26-21-48-22-26)18-24(19-38)35(47)44-12-6-7-25(20-44)46-34-31(33(39)40-23-41-34)32(42-46)29-11-10-28(17-30(29)37)49-27-8-4-3-5-9-27/h3-5,8-11,17-18,23,25-26H,6-7,12-16,20-22H2,1-2H3,(H2,39,40,41)/b24-18+/t25-/m1/s1

> <PUBCHEM_IUPAC_INCHIKEY>
LCFFREMLXLZNHE-GBOLQPHISA-N

> <PUBCHEM_XLOGP3_AA>
3.4

> <PUBCHEM_EXACT_MASS>
665.32381433

> <PUBCHEM_MOLECULAR_FORMULA>
C36H40FN9O3

> <PUBCHEM_MOLECULAR_WEIGHT>
665.8

> <PUBCHEM_OPENEYE_CAN_SMILES>
CC(C)(C=C(C#N)C(=O)N1CCCC(C1)N2C3=NC=NC(=C3C(=N2)C4=C(C=C(C=C4)OC5=CC=CC=C5)F)N)N6CCN(CC6)C7COC7

> <PUBCHEM_OPENEYE_ISO_SMILES>
CC(C)(/C=C(\C#N)/C(=O)N1CCC[C@H](C1)N2C3=NC=NC(=C3C(=N2)C4=C(C=C(C=C4)OC5=CC=CC=C5)F)N)N6CCN(CC6)C7COC7

> <PUBCHEM_CACTVS_TPSA>
139

> <PUBCHEM_MONOISOTOPIC_WEIGHT>
665.32381433

> <PUBCHEM_TOTAL_CHARGE>
0

> <PUBCHEM_HEAVY_ATOM_COUNT>
49

> <PUBCHEM_ATOM_DEF_STEREO_COUNT>
1

> <PUBCHEM_ATOM_UDEF_STEREO_COUNT>
0

> <PUBCHEM_BOND_DEF_STEREO_COUNT>
1

> <PUBCHEM_BOND_UDEF_STEREO_COUNT>
0

> <PUBCHEM_ISOTOPIC_ATOM_COUNT>
0

> <PUBCHEM_COMPONENT_COUNT>
1

> <PUBCHEM_CACTVS_TAUTO_COUNT>
-1

> <PUBCHEM_COORDINATE_TYPE>
1
5
255

> <PUBCHEM_BONDANNOTATIONS>
10  32  8
10  38  8
11  36  8
11  38  8
32  33  8
33  34  8
33  36  8
37  39  8
37  40  8
39  41  8
40  42  8
41  43  8
42  43  8
44  45  8
44  46  8
45  47  8
46  48  8
47  49  8
48  49  8
22  8  5
8  32  8
8  9  8
9  34  8

$$$$
76963285
  -OEChem-11282412102D

 64 64  0     0  0  0  0  0  0999 V2000
    4.4853    0.0000    0.0000 Cl  0  0  0  0  0  0  0  0  0  0  0  0
    1.0000    3.4732    0.0000 S   0  0  0  0  0  0  0  0  0  0  0  0
    6.9939   11.7053    0.0000 O   0  0  0  0  0  0  0  0  0  0  0  0
    0.5000    2.6072    0.0000 O   0  0  0  0  0  0  0  0  0  0  0  0
    0.0000    3.4732    0.0000 O   0  0  0  0  0  0  0  0  0  0  0  0
   12.5061    3.2128    0.0000 O   0  0  0  0  0  0  0  0  0  0  0  0
   12.5061    5.7111    0.0000 O   0  0  0  0  0  0  0  0  0  0  0  0
   12.5061    8.2094    0.0000 O   0  0  0  0  0  0  0  0  0  0  0  0
    2.7320    4.4732    0.0000 N   0  0  0  0  0  0  0  0  0  0  0  0
    6.9939    9.9732    0.0000 N   0  0  0  0  0  0  0  0  0  0  0  0
    4.4641    9.4732    0.0000 N   0  0  0  0  0  0  0  0  0  0  0  0
    5.4103    9.1685    0.0000 N   0  0  0  0  0  0  0  0  0  0  0  0
    5.4103   10.7779    0.0000 N   0  0  0  0  0  0  0  0  0  0  0  0
    8.4939   10.8392    0.0000 C   0  0  0  0  0  0  0  0  0  0  0  0
    9.3600   10.3392    0.0000 C   0  0  0  0  0  0  0  0  0  0  0  0
    9.3600   11.3392    0.0000 C   0  0  0  0  0  0  0  0  0  0  0  0
    7.4939   10.8392    0.0000 C   0  0  0  0  0  0  0  0  0  0  0  0
    2.7320    3.4732    0.0000 C   0  0  0  0  0  0  0  0  0  0  0  0
    1.8660    4.9732    0.0000 C   0  0  0  0  0  0  0  0  0  0  0  0
    1.8660    2.9732    0.0000 C   0  0  0  0  0  0  0  0  0  0  0  0
    1.0000    4.4732    0.0000 C   0  0  0  0  0  0  0  0  0  0  0  0
    3.5981    4.9732    0.0000 C   0  0  0  0  0  0  0  0  0  0  0  0
    3.5981    5.9732    0.0000 C   0  0  0  0  0  0  0  0  0  0  0  0
    5.9939    9.9732    0.0000 C   0  0  0  0  0  0  0  0  0  0  0  0
    4.4641    6.4732    0.0000 C   0  0  0  0  0  0  0  0  0  0  0  0
    2.7320    6.4732    0.0000 C   0  0  0  0  0  0  0  0  0  0  0  0
    3.5981    7.9732    0.0000 C   0  0  0  0  0  0  0  0  0  0  0  0
    3.5981    8.9732    0.0000 C   0  0  0  0  0  0  0  0  0  0  0  0
    4.4641    7.4732    0.0000 C   0  0  0  0  0  0  0  0  0  0  0  0
    2.7320    7.4732    0.0000 C   0  0  0  0  0  0  0  0  0  0  0  0
    4.4641   10.4732    0.0000 C   0  0  0  0  0  0  0  0  0  0  0  0
    2.7320    9.4732    0.0000 C   0  0  0  0  0  0  0  0  0  0  0  0
    3.5981   10.9732    0.0000 C   0  0  0  0  0  0  0  0  0  0  0  0
    2.7320   10.4732    0.0000 C   0  0  0  0  0  0  0  0  0  0  0  0
    8.3335   11.4381    0.0000 H   0  0  0  0  0  0  0  0  0  0  0  0
    9.1479    9.7566    0.0000 H   0  0  0  0  0  0  0  0  0  0  0  0
    9.9705   10.2316    0.0000 H   0  0  0  0  0  0  0  0  0  0  0  0
    9.9705   11.4469    0.0000 H   0  0  0  0  0  0  0  0  0  0  0  0
    9.1479   11.9218    0.0000 H   0  0  0  0  0  0  0  0  0  0  0  0
    2.9441    2.8906    0.0000 H   0  0  0  0  0  0  0  0  0  0  0  0
    3.3426    3.5809    0.0000 H   0  0  0  0  0  0  0  0  0  0  0  0
    2.2646    5.4482    0.0000 H   0  0  0  0  0  0  0  0  0  0  0  0
    1.4675    5.4482    0.0000 H   0  0  0  0  0  0  0  0  0  0  0  0
    1.4675    2.4983    0.0000 H   0  0  0  0  0  0  0  0  0  0  0  0
    2.2646    2.4983    0.0000 H   0  0  0  0  0  0  0  0  0  0  0  0
    0.7879    5.0558    0.0000 H   0  0  0  0  0  0  0  0  0  0  0  0
    0.3894    4.3655    0.0000 H   0  0  0  0  0  0  0  0  0  0  0  0
    3.8101    4.3906    0.0000 H   0  0  0  0  0  0  0  0  0  0  0  0
    4.2087    5.0809    0.0000 H   0  0  0  0  0  0  0  0  0  0  0  0
    7.3039    9.4363    0.0000 H   0  0  0  0  0  0  0  0  0  0  0  0
    5.0010    6.1632    0.0000 H   0  0  0  0  0  0  0  0  0  0  0  0
    2.1951    6.1632    0.0000 H   0  0  0  0  0  0  0  0  0  0  0  0
    5.0010    7.7832    0.0000 H   0  0  0  0  0  0  0  0  0  0  0  0
    2.1951    7.7832    0.0000 H   0  0  0  0  0  0  0  0  0  0  0  0
    2.1951    9.1632    0.0000 H   0  0  0  0  0  0  0  0  0  0  0  0
    3.5981   11.5932    0.0000 H   0  0  0  0  0  0  0  0  0  0  0  0
    2.1951   10.7832    0.0000 H   0  0  0  0  0  0  0  0  0  0  0  0
   13.0430    3.5228    0.0000 H   0  0  0  0  0  0  0  0  0  0  0  0
   11.9691    3.5228    0.0000 H   0  0  0  0  0  0  0  0  0  0  0  0
   13.0430    6.0211    0.0000 H   0  0  0  0  0  0  0  0  0  0  0  0
   11.9691    6.0211    0.0000 H   0  0  0  0  0  0  0  0  0  0  0  0
   13.0430    8.5194    0.0000 H   0  0  0  0  0  0  0  0  0  0  0  0
   11.9691    8.5194    0.0000 H   0  0  0  0  0  0  0  0  0  0  0  0
    5.4853    0.0000    0.0000 H   0  0  0  0  0  0  0  0  0  0  0  0
  1 64  1  0  0  0  0
  2  4  2  0  0  0  0
  2  5  2  0  0  0  0
  2 20  1  0  0  0  0
  2 21  1  0  0  0  0
  3 17  2  0  0  0  0
  6 58  1  0  0  0  0
  6 59  1  0  0  0  0
  7 60  1  0  0  0  0
  7 61  1  0  0  0  0
  8 62  1  0  0  0  0
  8 63  1  0  0  0  0
  9 18  1  0  0  0  0
  9 19  1  0  0  0  0
  9 22  1  0  0  0  0
 10 17  1  0  0  0  0
 10 24  1  0  0  0  0
 10 50  1  0  0  0  0
 11 12  1  0  0  0  0
 11 28  1  0  0  0  0
 11 31  1  0  0  0  0
 12 24  2  0  0  0  0
 13 24  1  0  0  0  0
 13 31  2  0  0  0  0
 14 15  1  0  0  0  0
 14 16  1  0  0  0  0
 14 17  1  0  0  0  0
 14 35  1  0  0  0  0
 15 16  1  0  0  0  0
 15 36  1  0  0  0  0
 15 37  1  0  0  0  0
 16 38  1  0  0  0  0
 16 39  1  0  0  0  0
 18 20  1  0  0  0  0
 18 40  1  0  0  0  0
 18 41  1  0  0  0  0
 19 21  1  0  0  0  0
 19 42  1  0  0  0  0
 19 43  1  0  0  0  0
 20 44  1  0  0  0  0
 20 45  1  0  0  0  0
 21 46  1  0  0  0  0
 21 47  1  0  0  0  0
 22 23  1  0  0  0  0
 22 48  1  0  0  0  0
 22 49  1  0  0  0  0
 23 25  2  0  0  0  0
 23 26  1  0  0  0  0
 25 29  1  0  0  0  0
 25 51  1  0  0  0  0
 26 30  2  0  0  0  0
 26 52  1  0  0  0  0
 27 28  1  0  0  0  0
 27 29  2  0  0  0  0
 27 30  1  0  0  0  0
 28 32  2  0  0  0  0
 29 53  1  0  0  0  0
 30 54  1  0  0  0  0
 31 33  1  0  0  0  0
 32 34  1  0  0  0  0
 32 55  1  0  0  0  0
 33 34  2  0  0  0  0
 33 56  1  0  0  0  0
 34 57  1  0  0  0  0
M  END
> <PUBCHEM_COMPOUND_CID>
76963285

> <PUBCHEM_COMPOUND_CANONICALIZED>
1

> <PUBCHEM_CACTVS_COMPLEXITY>
715

> <PUBCHEM_CACTVS_HBOND_ACCEPTOR>
9

> <PUBCHEM_CACTVS_HBOND_DONOR>
5

> <PUBCHEM_CACTVS_ROTATABLE_BOND>
5

> <PUBCHEM_CACTVS_SUBSKEYS>
AAADceB7uABEAAAAAAAAAAAAGAAAAWAAAAA8WIAAAAAAAFgB8AAAHgQYCAAADQjF3wSxsJ/IEAqqAydydHDShCshArAdmCE4ZJiIKPLAmZGEoAh4mQLoyCcQgMAOQAAAAAAAAACAAAAAAAAAAAAAAAAAAA==

> <PUBCHEM_IUPAC_OPENEYE_NAME>
N-[5-[4-[(1,1-dioxo-1,4-thiazinan-4-yl)methyl]phenyl]-[1,2,4]triazolo[1,5-a]pyridin-2-yl]cyclopropanecarboxamide;trihydrate;hydrochloride

> <PUBCHEM_IUPAC_CAS_NAME>
N-[5-[4-[(1,1-dioxo-1,4-thiazinan-4-yl)methyl]phenyl]-[1,2,4]triazolo[1,5-a]pyridin-2-yl]cyclopropanecarboxamide;trihydrate;hydrochloride

> <PUBCHEM_IUPAC_NAME_MARKUP>
<I>N</I>-[5-[4-[(1,1-dioxo-1,4-thiazinan-4-yl)methyl]phenyl]-[1,2,4]triazolo[1,5-a]pyridin-2-yl]cyclopropanecarboxamide;trihydrate;hydrochloride

> <PUBCHEM_IUPAC_NAME>
N-[5-[4-[(1,1-dioxo-1,4-thiazinan-4-yl)methyl]phenyl]-[1,2,4]triazolo[1,5-a]pyridin-2-yl]cyclopropanecarboxamide;trihydrate;hydrochloride

> <PUBCHEM_IUPAC_SYSTEMATIC_NAME>
N-[5-[4-[[1,1-bis(oxidanylidene)-1,4-thiazinan-4-yl]methyl]phenyl]-[1,2,4]triazolo[1,5-a]pyridin-2-yl]cyclopropanecarboxamide;trihydrate;hydrochloride

> <PUBCHEM_IUPAC_TRADITIONAL_NAME>
N-[5-[4-[(1,1-diketo-1,4-thiazinan-4-yl)methyl]phenyl]-[1,2,4]triazolo[1,5-a]pyridin-2-yl]cyclopropanecarboxamide;trihydrate;hydrochloride

> <PUBCHEM_IUPAC_INCHI>
InChI=1S/C21H23N5O3S.ClH.3H2O/c27-20(17-8-9-17)23-21-22-19-3-1-2-18(26(19)24-21)16-6-4-15(5-7-16)14-25-10-12-30(28,29)13-11-25;;;;/h1-7,17H,8-14H2,(H,23,24,27);1H;3*1H2

> <PUBCHEM_IUPAC_INCHIKEY>
VLVWKOPMGYYNKV-UHFFFAOYSA-N

> <PUBCHEM_EXACT_MASS>
515.1605326

> <PUBCHEM_MOLECULAR_FORMULA>
C21H30ClN5O6S

> <PUBCHEM_MOLECULAR_WEIGHT>
516.0

> <PUBCHEM_OPENEYE_CAN_SMILES>
C1CC1C(=O)NC2=NN3C(=N2)C=CC=C3C4=CC=C(C=C4)CN5CCS(=O)(=O)CC5.O.O.O.Cl

> <PUBCHEM_OPENEYE_ISO_SMILES>
C1CC1C(=O)NC2=NN3C(=N2)C=CC=C3C4=CC=C(C=C4)CN5CCS(=O)(=O)CC5.O.O.O.Cl

> <PUBCHEM_CACTVS_TPSA>
108

> <PUBCHEM_MONOISOTOPIC_WEIGHT>
515.1605326

> <PUBCHEM_TOTAL_CHARGE>
0

> <PUBCHEM_HEAVY_ATOM_COUNT>
34

> <PUBCHEM_ATOM_DEF_STEREO_COUNT>
0

> <PUBCHEM_ATOM_UDEF_STEREO_COUNT>
0

> <PUBCHEM_BOND_DEF_STEREO_COUNT>
0

> <PUBCHEM_BOND_UDEF_STEREO_COUNT>
0

> <PUBCHEM_ISOTOPIC_ATOM_COUNT>
0

> <PUBCHEM_COMPONENT_COUNT>
5

> <PUBCHEM_CACTVS_TAUTO_COUNT>
5

> <PUBCHEM_COORDINATE_TYPE>
1
5
255

> <PUBCHEM_BONDANNOTATIONS>
11  12  8
11  28  8
11  31  8
12  24  8
13  24  8
13  31  8
23  25  8
23  26  8
25  29  8
26  30  8
27  29  8
27  30  8
28  32  8
31  33  8
32  34  8
33  34  8

$$$$
92135932
  -OEChem-11282412102D

 92 95  0     1  0  0  0  0  0999 V2000
   15.7352    7.1723    0.0000 S   0  0  0  0  0  0  0  0  0  0  0  0
    4.8671    5.6368    0.0000 O   0  0  0  0  0  0  0  0  0  0  0  0
    6.9494    2.3935    0.0000 O   0  0  0  0  0  0  0  0  0  0  0  0
    1.4030    8.6368    0.0000 O   0  0  0  0  0  0  0  0  0  0  0  0
   16.6012    7.6723    0.0000 O   0  0  0  0  0  0  0  0  0  0  0  0
   15.2352    8.0384    0.0000 O   0  0  0  0  0  0  0  0  0  0  0  0
   16.2352    6.3063    0.0000 O   0  0  0  0  0  0  0  0  0  0  0  0
    9.1972   12.1368    0.0000 N   0  0  0  0  0  0  0  0  0  0  0  0
    6.5991   10.6368    0.0000 N   0  0  0  0  0  0  0  0  0  0  0  0
   10.9292   13.1368    0.0000 N   0  0  0  0  0  0  0  0  0  0  0  0
    5.3671    3.0980    0.0000 N   0  0  0  0  0  0  0  0  0  0  0  0
    3.1350    8.6368    0.0000 N   0  0  0  0  0  0  0  0  0  0  0  0
    4.0010    7.1368    0.0000 N   0  0  0  0  0  0  0  0  0  0  0  0
    2.2690    6.1368    0.0000 N   0  0  0  0  0  0  0  0  0  0  0  0
    0.5369    7.1368    0.0000 N   0  0  0  0  0  0  0  0  0  0  0  0
    8.3312   11.6368    0.0000 C   0  0  0  0  0  0  0  0  0  0  0  0
    8.3312   10.6368    0.0000 C   0  0  0  0  0  0  0  0  0  0  0  0
    7.4651   12.1368    0.0000 C   0  0  0  0  0  0  0  0  0  0  0  0
    7.4651   10.1368    0.0000 C   0  0  0  0  0  0  0  0  0  0  0  0
    6.5991   11.6368    0.0000 C   0  0  0  0  0  0  0  0  0  0  0  0
    9.1972   13.1368    0.0000 C   0  0  0  0  0  0  0  0  0  0  0  0
   10.0632   11.6368    0.0000 C   0  0  0  0  0  0  0  0  0  0  0  0
   10.0632   13.6368    0.0000 C   0  0  0  0  0  0  0  0  0  0  0  0
   10.9292   12.1368    0.0000 C   0  0  0  0  0  0  0  0  0  0  0  0
    5.7331   10.1368    0.0000 C   0  0  0  0  0  0  0  0  0  0  0  0
   11.7953   13.6368    0.0000 C   0  0  0  0  0  0  0  0  0  0  0  0
    5.7331    9.1368    0.0000 C   0  0  0  0  0  0  0  0  0  0  0  0
    4.8671   10.6368    0.0000 C   0  0  0  0  0  0  0  0  0  0  0  0
    4.8671    4.6368    0.0000 C   0  0  2  0  0  0  0  0  0  0  0  0
    4.0580    4.0490    0.0000 C   0  0  0  0  0  0  0  0  0  0  0  0
    5.6761    4.0490    0.0000 C   0  0  0  0  0  0  0  0  0  0  0  0
    4.3671    3.0980    0.0000 C   0  0  0  0  0  0  0  0  0  0  0  0
    4.8671    8.6368    0.0000 C   0  0  0  0  0  0  0  0  0  0  0  0
    4.0010   10.1368    0.0000 C   0  0  0  0  0  0  0  0  0  0  0  0
    4.0010    9.1368    0.0000 C   0  0  0  0  0  0  0  0  0  0  0  0
    5.9549    2.2890    0.0000 C   0  0  0  0  0  0  0  0  0  0  0  0
    4.0010    6.1368    0.0000 C   0  0  0  0  0  0  0  0  0  0  0  0
    3.1350    7.6368    0.0000 C   0  0  0  0  0  0  0  0  0  0  0  0
    3.1350    5.6368    0.0000 C   0  0  0  0  0  0  0  0  0  0  0  0
    2.2690    7.1368    0.0000 C   0  0  0  0  0  0  0  0  0  0  0  0
    5.5481    1.3754    0.0000 C   0  0  0  0  0  0  0  0  0  0  0  0
    3.1350    4.6368    0.0000 C   0  0  0  0  0  0  0  0  0  0  0  0
    1.4030    7.6368    0.0000 C   0  0  0  0  0  0  0  0  0  0  0  0
    2.2690    4.1368    0.0000 C   0  0  0  0  0  0  0  0  0  0  0  0
    6.1359    0.5664    0.0000 C   0  0  0  0  0  0  0  0  0  0  0  0
   14.8691    6.6723    0.0000 C   0  0  0  0  0  0  0  0  0  0  0  0
    8.8681   11.3268    0.0000 H   0  0  0  0  0  0  0  0  0  0  0  0
    8.5432   10.0542    0.0000 H   0  0  0  0  0  0  0  0  0  0  0  0
    8.9417   10.7445    0.0000 H   0  0  0  0  0  0  0  0  0  0  0  0
    7.8637   12.6118    0.0000 H   0  0  0  0  0  0  0  0  0  0  0  0
    7.0666   12.6118    0.0000 H   0  0  0  0  0  0  0  0  0  0  0  0
    7.0666    9.6619    0.0000 H   0  0  0  0  0  0  0  0  0  0  0  0
    7.8637    9.6619    0.0000 H   0  0  0  0  0  0  0  0  0  0  0  0
    6.3871   12.2194    0.0000 H   0  0  0  0  0  0  0  0  0  0  0  0
    5.9885   11.5292    0.0000 H   0  0  0  0  0  0  0  0  0  0  0  0
    8.9851   13.7194    0.0000 H   0  0  0  0  0  0  0  0  0  0  0  0
    8.5866   13.0292    0.0000 H   0  0  0  0  0  0  0  0  0  0  0  0
    9.6647   11.1619    0.0000 H   0  0  0  0  0  0  0  0  0  0  0  0
   10.4617   11.1619    0.0000 H   0  0  0  0  0  0  0  0  0  0  0  0
   10.4617   14.1118    0.0000 H   0  0  0  0  0  0  0  0  0  0  0  0
    9.6647   14.1118    0.0000 H   0  0  0  0  0  0  0  0  0  0  0  0
   11.1413   11.5542    0.0000 H   0  0  0  0  0  0  0  0  0  0  0  0
   11.5398   12.2445    0.0000 H   0  0  0  0  0  0  0  0  0  0  0  0
   12.1053   13.0999    0.0000 H   0  0  0  0  0  0  0  0  0  0  0  0
   12.3322   13.9468    0.0000 H   0  0  0  0  0  0  0  0  0  0  0  0
   11.4853   14.1738    0.0000 H   0  0  0  0  0  0  0  0  0  0  0  0
    6.2700    8.8268    0.0000 H   0  0  0  0  0  0  0  0  0  0  0  0
    4.8671   11.2568    0.0000 H   0  0  0  0  0  0  0  0  0  0  0  0
    5.4195    4.9183    0.0000 H   0  0  0  0  0  0  0  0  0  0  0  0
    3.7480    4.5860    0.0000 H   0  0  0  0  0  0  0  0  0  0  0  0
    3.4916    3.7969    0.0000 H   0  0  0  0  0  0  0  0  0  0  0  0
    6.2425    3.7969    0.0000 H   0  0  0  0  0  0  0  0  0  0  0  0
    5.9861    4.5860    0.0000 H   0  0  0  0  0  0  0  0  0  0  0  0
    3.7606    2.9691    0.0000 H   0  0  0  0  0  0  0  0  0  0  0  0
    4.4319    2.4814    0.0000 H   0  0  0  0  0  0  0  0  0  0  0  0
    4.8671    8.0168    0.0000 H   0  0  0  0  0  0  0  0  0  0  0  0
    3.4641   10.4468    0.0000 H   0  0  0  0  0  0  0  0  0  0  0  0
    2.5981    8.9468    0.0000 H   0  0  0  0  0  0  0  0  0  0  0  0
    4.9315    1.3106    0.0000 H   0  0  0  0  0  0  0  0  0  0  0  0
    3.3471    4.0542    0.0000 H   0  0  0  0  0  0  0  0  0  0  0  0
    3.7456    4.7445    0.0000 H   0  0  0  0  0  0  0  0  0  0  0  0
    1.9590    4.6738    0.0000 H   0  0  0  0  0  0  0  0  0  0  0  0
    1.7320    3.8268    0.0000 H   0  0  0  0  0  0  0  0  0  0  0  0
    2.5790    3.5999    0.0000 H   0  0  0  0  0  0  0  0  0  0  0  0
    5.8837    0.0000    0.0000 H   0  0  0  0  0  0  0  0  0  0  0  0
    6.7525    0.6312    0.0000 H   0  0  0  0  0  0  0  0  0  0  0  0
    0.0000    7.4468    0.0000 H   0  0  0  0  0  0  0  0  0  0  0  0
    0.5369    6.5168    0.0000 H   0  0  0  0  0  0  0  0  0  0  0  0
   14.5591    7.2093    0.0000 H   0  0  0  0  0  0  0  0  0  0  0  0
   14.3322    6.3623    0.0000 H   0  0  0  0  0  0  0  0  0  0  0  0
   15.1791    6.1354    0.0000 H   0  0  0  0  0  0  0  0  0  0  0  0
   17.1381    7.3623    0.0000 H   0  0  0  0  0  0  0  0  0  0  0  0
  1  5  1  0  0  0  0
  1  6  2  0  0  0  0
  1  7  2  0  0  0  0
  1 46  1  0  0  0  0
 29  2  1  1  0  0  0
  2 37  1  0  0  0  0
  3 36  2  0  0  0  0
  4 43  2  0  0  0  0
  5 92  1  0  0  0  0
  8 16  1  0  0  0  0
  8 21  1  0  0  0  0
  8 22  1  0  0  0  0
  9 19  1  0  0  0  0
  9 20  1  0  0  0  0
  9 25  1  0  0  0  0
 10 23  1  0  0  0  0
 10 24  1  0  0  0  0
 10 26  1  0  0  0  0
 11 31  1  0  0  0  0
 11 32  1  0  0  0  0
 11 36  1  0  0  0  0
 12 35  1  0  0  0  0
 12 38  1  0  0  0  0
 12 78  1  0  0  0  0
 13 37  1  0  0  0  0
 13 38  2  0  0  0  0
 14 39  1  0  0  0  0
 14 40  2  0  0  0  0
 15 43  1  0  0  0  0
 15 87  1  0  0  0  0
 15 88  1  0  0  0  0
 16 17  1  0  0  0  0
 16 18  1  0  0  0  0
 16 47  1  0  0  0  0
 17 19  1  0  0  0  0
 17 48  1  0  0  0  0
 17 49  1  0  0  0  0
 18 20  1  0  0  0  0
 18 50  1  0  0  0  0
 18 51  1  0  0  0  0
 19 52  1  0  0  0  0
 19 53  1  0  0  0  0
 20 54  1  0  0  0  0
 20 55  1  0  0  0  0
 21 23  1  0  0  0  0
 21 56  1  0  0  0  0
 21 57  1  0  0  0  0
 22 24  1  0  0  0  0
 22 58  1  0  0  0  0
 22 59  1  0  0  0  0
 23 60  1  0  0  0  0
 23 61  1  0  0  0  0
 24 62  1  0  0  0  0
 24 63  1  0  0  0  0
 25 27  2  0  0  0  0
 25 28  1  0  0  0  0
 26 64  1  0  0  0  0
 26 65  1  0  0  0  0
 26 66  1  0  0  0  0
 27 33  1  0  0  0  0
 27 67  1  0  0  0  0
 28 34  2  0  0  0  0
 28 68  1  0  0  0  0
 29 30  1  0  0  0  0
 29 31  1  0  0  0  0
 29 69  1  0  0  0  0
 30 32  1  0  0  0  0
 30 70  1  0  0  0  0
 30 71  1  0  0  0  0
 31 72  1  0  0  0  0
 31 73  1  0  0  0  0
 32 74  1  0  0  0  0
 32 75  1  0  0  0  0
 33 35  2  0  0  0  0
 33 76  1  0  0  0  0
 34 35  1  0  0  0  0
 34 77  1  0  0  0  0
 36 41  1  0  0  0  0
 37 39  2  0  0  0  0
 38 40  1  0  0  0  0
 39 42  1  0  0  0  0
 40 43  1  0  0  0  0
 41 45  2  0  0  0  0
 41 79  1  0  0  0  0
 42 44  1  0  0  0  0
 42 80  1  0  0  0  0
 42 81  1  0  0  0  0
 44 82  1  0  0  0  0
 44 83  1  0  0  0  0
 44 84  1  0  0  0  0
 45 85  1  0  0  0  0
 45 86  1  0  0  0  0
 46 89  1  0  0  0  0
 46 90  1  0  0  0  0
 46 91  1  0  0  0  0
M  END
> <PUBCHEM_COMPOUND_CID>
92135932

> <PUBCHEM_COMPOUND_CANONICALIZED>
1

> <PUBCHEM_CACTVS_COMPLEXITY>
976

> <PUBCHEM_CACTVS_HBOND_ACCEPTOR>
12

> <PUBCHEM_CACTVS_HBOND_DONOR>
3

> <PUBCHEM_CACTVS_ROTATABLE_BOND>
9

> <PUBCHEM_CACTVS_SUBSKEYS>
AAADcfB7+ABAAAAAAAAAAAAAAAAAAWAAAAA8WLEAAAAAAAABwAAAHgQQCAAACDzhlgaz9JPIFIKoASdydHSCiC0nciAJmAG9dMiOYGrE2bOfKKjulgLYyOcQAAAAAACAAAAAAAAAAQAAAAAAAAAAAAAAAA==

> <PUBCHEM_IUPAC_OPENEYE_NAME>
6-ethyl-3-[4-[4-(4-methylpiperazin-1-yl)-1-piperidyl]anilino]-5-[(3R)-1-prop-2-enoylpyrrolidin-3-yl]oxy-pyrazine-2-carboxamide;methanesulfonic acid

> <PUBCHEM_IUPAC_CAS_NAME>
6-ethyl-3-[4-[4-(4-methyl-1-piperazinyl)-1-piperidinyl]anilino]-5-[[(3R)-1-(1-oxoprop-2-enyl)-3-pyrrolidinyl]oxy]-2-pyrazinecarboxamide;methanesulfonic acid

> <PUBCHEM_IUPAC_NAME_MARKUP>
6-ethyl-3-[4-[4-(4-methylpiperazin-1-yl)piperidin-1-yl]anilino]-5-[(3<I>R</I>)-1-prop-2-enoylpyrrolidin-3-yl]oxypyrazine-2-carboxamide;methanesulfonic acid

> <PUBCHEM_IUPAC_NAME>
6-ethyl-3-[4-[4-(4-methylpiperazin-1-yl)piperidin-1-yl]anilino]-5-[(3R)-1-prop-2-enoylpyrrolidin-3-yl]oxypyrazine-2-carboxamide;methanesulfonic acid

> <PUBCHEM_IUPAC_SYSTEMATIC_NAME>
6-ethyl-3-[[4-[4-(4-methylpiperazin-1-yl)piperidin-1-yl]phenyl]amino]-5-[(3R)-1-prop-2-enoylpyrrolidin-3-yl]oxy-pyrazine-2-carboxamide;methanesulfonic acid

> <PUBCHEM_IUPAC_TRADITIONAL_NAME>
5-[(3R)-1-acryloylpyrrolidin-3-yl]oxy-6-ethyl-3-[4-[4-(4-methylpiperazino)piperidino]anilino]pyrazinamide;mesylic acid

> <PUBCHEM_IUPAC_INCHI>
InChI=1S/C30H42N8O3.CH4O3S/c1-4-25-30(41-24-12-15-38(20-24)26(39)5-2)34-29(27(33-25)28(31)40)32-21-6-8-22(9-7-21)36-13-10-23(11-14-36)37-18-16-35(3)17-19-37;1-5(2,3)4/h5-9,23-24H,2,4,10-20H2,1,3H3,(H2,31,40)(H,32,34);1H3,(H,2,3,4)/t24-;/m1./s1

> <PUBCHEM_IUPAC_INCHIKEY>
ALDUQYYVQWGTMR-GJFSDDNBSA-N

> <PUBCHEM_EXACT_MASS>
658.32610239

> <PUBCHEM_MOLECULAR_FORMULA>
C31H46N8O6S

> <PUBCHEM_MOLECULAR_WEIGHT>
658.8

> <PUBCHEM_OPENEYE_CAN_SMILES>
CCC1=C(N=C(C(=N1)C(=O)N)NC2=CC=C(C=C2)N3CCC(CC3)N4CCN(CC4)C)OC5CCN(C5)C(=O)C=C.CS(=O)(=O)O

> <PUBCHEM_OPENEYE_ISO_SMILES>
CCC1=C(N=C(C(=N1)C(=O)N)NC2=CC=C(C=C2)N3CCC(CC3)N4CCN(CC4)C)O[C@@H]5CCN(C5)C(=O)C=C.CS(=O)(=O)O

> <PUBCHEM_CACTVS_TPSA>
183

> <PUBCHEM_MONOISOTOPIC_WEIGHT>
658.32610239

> <PUBCHEM_TOTAL_CHARGE>
0

> <PUBCHEM_HEAVY_ATOM_COUNT>
46

> <PUBCHEM_ATOM_DEF_STEREO_COUNT>
1

> <PUBCHEM_ATOM_UDEF_STEREO_COUNT>
0

> <PUBCHEM_BOND_DEF_STEREO_COUNT>
0

> <PUBCHEM_BOND_UDEF_STEREO_COUNT>
0

> <PUBCHEM_ISOTOPIC_ATOM_COUNT>
0

> <PUBCHEM_COMPONENT_COUNT>
2

> <PUBCHEM_CACTVS_TAUTO_COUNT>
49

> <PUBCHEM_COORDINATE_TYPE>
1
5
255

> <PUBCHEM_BONDANNOTATIONS>
13  37  8
13  38  8
14  39  8
14  40  8
29  2  5
25  27  8
25  28  8
27  33  8
28  34  8
33  35  8
34  35  8
37  39  8
38  40  8

$$$$
117773770
  -OEChem-11282412102D

 41 43  0     1  0  0  0  0  0999 V2000
    2.0000    2.3100    0.0000 O   0  0  0  0  0  0  0  0  0  0  0  0
    5.4641   -3.6900    0.0000 O   0  0  0  0  0  0  0  0  0  0  0  0
    3.7320    2.3100    0.0000 N   0  0  0  0  0  0  0  0  0  0  0  0
    6.4103   -1.9947    0.0000 N   0  0  0  0  0  0  0  0  0  0  0  0
    3.7320   -3.6900    0.0000 N   0  0  0  0  0  0  0  0  0  0  0  0
    4.5981    0.8100    0.0000 C   0  0  2  0  0  0  0  0  0  0  0  0
    5.4641    1.3100    0.0000 C   0  0  0  0  0  0  0  0  0  0  0  0
    3.7320    1.3100    0.0000 C   0  0  0  0  0  0  0  0  0  0  0  0
    5.4641    2.3100    0.0000 C   0  0  0  0  0  0  0  0  0  0  0  0
    4.5981    2.8100    0.0000 C   0  0  0  0  0  0  0  0  0  0  0  0
    4.5981   -0.1900    0.0000 C   0  0  0  0  0  0  0  0  0  0  0  0
    5.4641   -0.6900    0.0000 C   0  0  0  0  0  0  0  0  0  0  0  0
    3.7320   -0.6900    0.0000 C   0  0  0  0  0  0  0  0  0  0  0  0
    5.4641   -1.6900    0.0000 C   0  0  0  0  0  0  0  0  0  0  0  0
    2.8660    2.8100    0.0000 C   0  0  0  0  0  0  0  0  0  0  0  0
    4.5981   -2.1900    0.0000 C   0  0  0  0  0  0  0  0  0  0  0  0
    6.4103   -0.3853    0.0000 C   0  0  0  0  0  0  0  0  0  0  0  0
    3.7320   -1.6900    0.0000 C   0  0  0  0  0  0  0  0  0  0  0  0
    6.9939   -1.1900    0.0000 C   0  0  0  0  0  0  0  0  0  0  0  0
    2.8660    3.8100    0.0000 C   0  0  0  0  0  0  0  0  0  0  0  0
    4.5981   -3.1900    0.0000 C   0  0  0  0  0  0  0  0  0  0  0  0
    2.0000    4.3100    0.0000 C   0  0  0  0  0  0  0  0  0  0  0  0
    5.3342    0.3850    0.0000 H   0  0  0  0  0  0  0  0  0  0  0  0
    5.6762    0.7274    0.0000 H   0  0  0  0  0  0  0  0  0  0  0  0
    6.0747    1.4177    0.0000 H   0  0  0  0  0  0  0  0  0  0  0  0
    3.1215    1.4177    0.0000 H   0  0  0  0  0  0  0  0  0  0  0  0
    3.5200    0.7274    0.0000 H   0  0  0  0  0  0  0  0  0  0  0  0
    6.0747    2.2023    0.0000 H   0  0  0  0  0  0  0  0  0  0  0  0
    5.6762    2.8926    0.0000 H   0  0  0  0  0  0  0  0  0  0  0  0
    4.9966    3.2850    0.0000 H   0  0  0  0  0  0  0  0  0  0  0  0
    4.1996    3.2850    0.0000 H   0  0  0  0  0  0  0  0  0  0  0  0
    3.1951   -0.3800    0.0000 H   0  0  0  0  0  0  0  0  0  0  0  0
    6.6029    0.2041    0.0000 H   0  0  0  0  0  0  0  0  0  0  0  0
    3.1951   -2.0000    0.0000 H   0  0  0  0  0  0  0  0  0  0  0  0
    6.6029   -2.5840    0.0000 H   0  0  0  0  0  0  0  0  0  0  0  0
    7.6139   -1.1900    0.0000 H   0  0  0  0  0  0  0  0  0  0  0  0
    3.4030    4.1200    0.0000 H   0  0  0  0  0  0  0  0  0  0  0  0
    2.0000    4.9300    0.0000 H   0  0  0  0  0  0  0  0  0  0  0  0
    1.4631    4.0000    0.0000 H   0  0  0  0  0  0  0  0  0  0  0  0
    3.7320   -4.3100    0.0000 H   0  0  0  0  0  0  0  0  0  0  0  0
    3.1951   -3.3800    0.0000 H   0  0  0  0  0  0  0  0  0  0  0  0
  1 15  2  0  0  0  0
  2 21  2  0  0  0  0
  3  8  1  0  0  0  0
  3 10  1  0  0  0  0
  3 15  1  0  0  0  0
  4 14  1  0  0  0  0
  4 19  1  0  0  0  0
  4 35  1  0  0  0  0
  5 21  1  0  0  0  0
  5 40  1  0  0  0  0
  5 41  1  0  0  0  0
  6  7  1  0  0  0  0
  6  8  1  0  0  0  0
  6 11  1  0  0  0  0
  6 23  1  6  0  0  0
  7  9  1  0  0  0  0
  7 24  1  0  0  0  0
  7 25  1  0  0  0  0
  8 26  1  0  0  0  0
  8 27  1  0  0  0  0
  9 10  1  0  0  0  0
  9 28  1  0  0  0  0
  9 29  1  0  0  0  0
 10 30  1  0  0  0  0
 10 31  1  0  0  0  0
 11 12  2  0  0  0  0
 11 13  1  0  0  0  0
 12 14  1  0  0  0  0
 12 17  1  0  0  0  0
 13 18  2  0  0  0  0
 13 32  1  0  0  0  0
 14 16  2  0  0  0  0
 15 20  1  0  0  0  0
 16 18  1  0  0  0  0
 16 21  1  0  0  0  0
 17 19  2  0  0  0  0
 17 33  1  0  0  0  0
 18 34  1  0  0  0  0
 19 36  1  0  0  0  0
 20 22  2  0  0  0  0
 20 37  1  0  0  0  0
 22 38  1  0  0  0  0
 22 39  1  0  0  0  0
M  END
> <PUBCHEM_COMPOUND_CID>
117773770

> <PUBCHEM_COMPOUND_CANONICALIZED>
1

> <PUBCHEM_CACTVS_COMPLEXITY>
465

> <PUBCHEM_CACTVS_HBOND_ACCEPTOR>
2

> <PUBCHEM_CACTVS_HBOND_DONOR>
2

> <PUBCHEM_CACTVS_ROTATABLE_BOND>
3

> <PUBCHEM_CACTVS_SUBSKEYS>
AAADceB7MAAAAAAAAAAAAAAAAAAAAWAAAAA8QAAAAAAAAFgB8AAAHgAQAAAADQjBngQ8wPPJkACoAzV3VACCgCA1AiAI2aE4ZNgIIPrA1ZGEIYhglgDIyccYiMCOwAACQAASAACAAASAACQAAAAAAAAAAA==

> <PUBCHEM_IUPAC_OPENEYE_NAME>
4-[(3S)-1-prop-2-enoyl-3-piperidyl]-1H-indole-7-carboxamide

> <PUBCHEM_IUPAC_CAS_NAME>
4-[(3S)-1-(1-oxoprop-2-enyl)-3-piperidinyl]-1H-indole-7-carboxamide

> <PUBCHEM_IUPAC_NAME_MARKUP>
4-[(3<I>S</I>)-1-prop-2-enoylpiperidin-3-yl]-1<I>H</I>-indole-7-carboxamide

> <PUBCHEM_IUPAC_NAME>
4-[(3S)-1-prop-2-enoylpiperidin-3-yl]-1H-indole-7-carboxamide

> <PUBCHEM_IUPAC_SYSTEMATIC_NAME>
4-[(3S)-1-prop-2-enoylpiperidin-3-yl]-1H-indole-7-carboxamide

> <PUBCHEM_IUPAC_TRADITIONAL_NAME>
4-[(3S)-1-acryloyl-3-piperidyl]-1H-indole-7-carboxamide

> <PUBCHEM_IUPAC_INCHI>
InChI=1S/C17H19N3O2/c1-2-15(21)20-9-3-4-11(10-20)12-5-6-14(17(18)22)16-13(12)7-8-19-16/h2,5-8,11,19H,1,3-4,9-10H2,(H2,18,22)/t11-/m1/s1

> <PUBCHEM_IUPAC_INCHIKEY>
UNHZLHSLZZWMNP-LLVKDONJSA-N

> <PUBCHEM_XLOGP3_AA>
1.6

> <PUBCHEM_EXACT_MASS>
297.147726857

> <PUBCHEM_MOLECULAR_FORMULA>
C17H19N3O2

> <PUBCHEM_MOLECULAR_WEIGHT>
297.35

> <PUBCHEM_OPENEYE_CAN_SMILES>
C=CC(=O)N1CCCC(C1)C2=C3C=CNC3=C(C=C2)C(=O)N

> <PUBCHEM_OPENEYE_ISO_SMILES>
C=CC(=O)N1CCC[C@H](C1)C2=C3C=CNC3=C(C=C2)C(=O)N

> <PUBCHEM_CACTVS_TPSA>
79.2

> <PUBCHEM_MONOISOTOPIC_WEIGHT>
297.147726857

> <PUBCHEM_TOTAL_CHARGE>
0

> <PUBCHEM_HEAVY_ATOM_COUNT>
22

> <PUBCHEM_ATOM_DEF_STEREO_COUNT>
1

> <PUBCHEM_ATOM_UDEF_STEREO_COUNT>
0

> <PUBCHEM_BOND_DEF_STEREO_COUNT>
0

> <PUBCHEM_BOND_UDEF_STEREO_COUNT>
0

> <PUBCHEM_ISOTOPIC_ATOM_COUNT>
0

> <PUBCHEM_COMPONENT_COUNT>
1

> <PUBCHEM_CACTVS_TAUTO_COUNT>
-1

> <PUBCHEM_COORDINATE_TYPE>
1
5
255

> <PUBCHEM_BONDANNOTATIONS>
11  12  8
11  13  8
12  14  8
12  17  8
13  18  8
14  16  8
16  18  8
17  19  8
4  14  8
4  19  8
6  23  6

$$$$
118161062
  -OEChem-11282412102D

 58 63  0     0  0  0  0  0  0999 V2000
    2.0000   -4.2241    0.0000 O   0  0  0  0  0  0  0  0  0  0  0  0
    4.0908   -3.0170    0.0000 N   0  0  0  0  0  0  0  0  0  0  0  0
    5.8228   -2.0170    0.0000 N   0  0  0  0  0  0  0  0  0  0  0  0
    9.2869   -0.0170    0.0000 N   0  0  0  0  0  0  0  0  0  0  0  0
   10.1529    2.4830    0.0000 N   0  0  0  0  0  0  0  0  0  0  0  0
    8.4209    1.4830    0.0000 N   0  0  0  0  0  0  0  0  0  0  0  0
   11.0992    1.1782    0.0000 N   0  0  0  0  0  0  0  0  0  0  0  0
    6.6888    2.4830    0.0000 N   0  0  0  0  0  0  0  0  0  0  0  0
    6.6888    4.4830    0.0000 N   0  0  0  0  0  0  0  0  0  0  0  0
    4.9568    2.4830    0.0000 N   0  0  0  0  0  0  0  0  0  0  0  0
    3.2247   -3.5170    0.0000 C   0  0  0  0  0  0  0  0  0  0  0  0
    4.9568   -3.5170    0.0000 C   0  0  0  0  0  0  0  0  0  0  0  0
    4.0908   -2.0170    0.0000 C   0  0  0  0  0  0  0  0  0  0  0  0
    2.9659   -4.4830    0.0000 C   0  0  0  0  0  0  0  0  0  0  0  0
    2.2588   -3.2582    0.0000 C   0  0  0  0  0  0  0  0  0  0  0  0
    5.8228   -3.0170    0.0000 C   0  0  0  0  0  0  0  0  0  0  0  0
    4.9568   -1.5170    0.0000 C   0  0  0  0  0  0  0  0  0  0  0  0
    6.6888   -1.5170    0.0000 C   0  0  0  0  0  0  0  0  0  0  0  0
    7.5549   -2.0170    0.0000 C   0  0  0  0  0  0  0  0  0  0  0  0
    6.6888   -0.5170    0.0000 C   0  0  0  0  0  0  0  0  0  0  0  0
    8.4209   -1.5170    0.0000 C   0  0  0  0  0  0  0  0  0  0  0  0
    7.5549   -0.0170    0.0000 C   0  0  0  0  0  0  0  0  0  0  0  0
    8.4209   -0.5170    0.0000 C   0  0  0  0  0  0  0  0  0  0  0  0
    9.2869    0.9830    0.0000 C   0  0  0  0  0  0  0  0  0  0  0  0
   10.1529    1.4830    0.0000 C   0  0  0  0  0  0  0  0  0  0  0  0
    8.4209    2.4830    0.0000 C   0  0  0  0  0  0  0  0  0  0  0  0
    9.2869    2.9830    0.0000 C   0  0  0  0  0  0  0  0  0  0  0  0
   11.0992    2.7877    0.0000 C   0  0  0  0  0  0  0  0  0  0  0  0
   11.6828    1.9830    0.0000 C   0  0  0  0  0  0  0  0  0  0  0  0
    7.5549    2.9830    0.0000 C   0  0  0  0  0  0  0  0  0  0  0  0
    7.5549    3.9830    0.0000 C   0  0  0  0  0  0  0  0  0  0  0  0
    5.8228    2.9830    0.0000 C   0  0  0  0  0  0  0  0  0  0  0  0
    5.8228    3.9830    0.0000 C   0  0  0  0  0  0  0  0  0  0  0  0
    3.1438   -2.9023    0.0000 H   0  0  0  0  0  0  0  0  0  0  0  0
    4.5583   -3.9920    0.0000 H   0  0  0  0  0  0  0  0  0  0  0  0
    5.3553   -3.9920    0.0000 H   0  0  0  0  0  0  0  0  0  0  0  0
    3.8787   -1.4344    0.0000 H   0  0  0  0  0  0  0  0  0  0  0  0
    3.4802   -2.1247    0.0000 H   0  0  0  0  0  0  0  0  0  0  0  0
    2.8055   -5.0818    0.0000 H   0  0  0  0  0  0  0  0  0  0  0  0
    3.5648   -4.6434    0.0000 H   0  0  0  0  0  0  0  0  0  0  0  0
    2.4193   -2.6593    0.0000 H   0  0  0  0  0  0  0  0  0  0  0  0
    1.6600   -3.0978    0.0000 H   0  0  0  0  0  0  0  0  0  0  0  0
    6.0349   -3.5996    0.0000 H   0  0  0  0  0  0  0  0  0  0  0  0
    6.4334   -2.9094    0.0000 H   0  0  0  0  0  0  0  0  0  0  0  0
    5.3553   -1.0421    0.0000 H   0  0  0  0  0  0  0  0  0  0  0  0
    4.5583   -1.0421    0.0000 H   0  0  0  0  0  0  0  0  0  0  0  0
    7.5549   -2.6370    0.0000 H   0  0  0  0  0  0  0  0  0  0  0  0
    6.1519   -0.2070    0.0000 H   0  0  0  0  0  0  0  0  0  0  0  0
    8.9578   -1.8270    0.0000 H   0  0  0  0  0  0  0  0  0  0  0  0
    7.5549    0.6030    0.0000 H   0  0  0  0  0  0  0  0  0  0  0  0
    9.8239   -0.3270    0.0000 H   0  0  0  0  0  0  0  0  0  0  0  0
    9.2869    3.6030    0.0000 H   0  0  0  0  0  0  0  0  0  0  0  0
   11.2918    3.3770    0.0000 H   0  0  0  0  0  0  0  0  0  0  0  0
   12.3028    1.9830    0.0000 H   0  0  0  0  0  0  0  0  0  0  0  0
    8.0918    4.2930    0.0000 H   0  0  0  0  0  0  0  0  0  0  0  0
    5.2859    4.2930    0.0000 H   0  0  0  0  0  0  0  0  0  0  0  0
    4.4199    2.7930    0.0000 H   0  0  0  0  0  0  0  0  0  0  0  0
    4.9568    1.8630    0.0000 H   0  0  0  0  0  0  0  0  0  0  0  0
  1 14  1  0  0  0  0
  1 15  1  0  0  0  0
  2 11  1  0  0  0  0
  2 12  1  0  0  0  0
  2 13  1  0  0  0  0
  3 16  1  0  0  0  0
  3 17  1  0  0  0  0
  3 18  1  0  0  0  0
  4 23  1  0  0  0  0
  4 24  1  0  0  0  0
  4 51  1  0  0  0  0
  5 25  1  0  0  0  0
  5 27  1  0  0  0  0
  5 28  1  0  0  0  0
  6 24  2  0  0  0  0
  6 26  1  0  0  0  0
  7 25  2  0  0  0  0
  7 29  1  0  0  0  0
  8 30  1  0  0  0  0
  8 32  2  0  0  0  0
  9 31  1  0  0  0  0
  9 33  2  0  0  0  0
 10 32  1  0  0  0  0
 10 57  1  0  0  0  0
 10 58  1  0  0  0  0
 11 14  1  0  0  0  0
 11 15  1  0  0  0  0
 11 34  1  0  0  0  0
 12 16  1  0  0  0  0
 12 35  1  0  0  0  0
 12 36  1  0  0  0  0
 13 17  1  0  0  0  0
 13 37  1  0  0  0  0
 13 38  1  0  0  0  0
 14 39  1  0  0  0  0
 14 40  1  0  0  0  0
 15 41  1  0  0  0  0
 15 42  1  0  0  0  0
 16 43  1  0  0  0  0
 16 44  1  0  0  0  0
 17 45  1  0  0  0  0
 17 46  1  0  0  0  0
 18 19  2  0  0  0  0
 18 20  1  0  0  0  0
 19 21  1  0  0  0  0
 19 47  1  0  0  0  0
 20 22  2  0  0  0  0
 20 48  1  0  0  0  0
 21 23  2  0  0  0  0
 21 49  1  0  0  0  0
 22 23  1  0  0  0  0
 22 50  1  0  0  0  0
 24 25  1  0  0  0  0
 26 27  2  0  0  0  0
 26 30  1  0  0  0  0
 27 52  1  0  0  0  0
 28 29  2  0  0  0  0
 28 53  1  0  0  0  0
 29 54  1  0  0  0  0
 30 31  2  0  0  0  0
 31 55  1  0  0  0  0
 32 33  1  0  0  0  0
 33 56  1  0  0  0  0
M  END
> <PUBCHEM_COMPOUND_CID>
118161062

> <PUBCHEM_COMPOUND_CANONICALIZED>
1

> <PUBCHEM_CACTVS_COMPLEXITY>
635

> <PUBCHEM_CACTVS_HBOND_ACCEPTOR>
9

> <PUBCHEM_CACTVS_HBOND_DONOR>
2

> <PUBCHEM_CACTVS_ROTATABLE_BOND>
5

> <PUBCHEM_CACTVS_SUBSKEYS>
AAADceB74AAAAAAAAAAAAAAAAABIAWAAAAA8WLEAAAAAAFgB/AAAHgAQAAAACCjhlwY98J/MHACgATZnZACCgC0xEqAJ2CA4dJiKaOLA2ZGVIAhokALYyCcQAAAAAACAAAAAAAAAAQAAAAAAAAAAAAAAAA==

> <PUBCHEM_IUPAC_OPENEYE_NAME>
6-(6-aminopyrazin-2-yl)-N-[4-[4-(oxetan-3-yl)piperazin-1-yl]phenyl]imidazo[1,2-a]pyrazin-8-amine

> <PUBCHEM_IUPAC_CAS_NAME>
6-(6-amino-2-pyrazinyl)-N-[4-[4-(3-oxetanyl)-1-piperazinyl]phenyl]-8-imidazo[1,2-a]pyrazinamine

> <PUBCHEM_IUPAC_NAME_MARKUP>
6-(6-aminopyrazin-2-yl)-<I>N</I>-[4-[4-(oxetan-3-yl)piperazin-1-yl]phenyl]imidazo[1,2-a]pyrazin-8-amine

> <PUBCHEM_IUPAC_NAME>
6-(6-aminopyrazin-2-yl)-N-[4-[4-(oxetan-3-yl)piperazin-1-yl]phenyl]imidazo[1,2-a]pyrazin-8-amine

> <PUBCHEM_IUPAC_SYSTEMATIC_NAME>
6-(6-azanylpyrazin-2-yl)-N-[4-[4-(oxetan-3-yl)piperazin-1-yl]phenyl]imidazo[1,2-a]pyrazin-8-amine

> <PUBCHEM_IUPAC_TRADITIONAL_NAME>
[6-(6-aminopyrazin-2-yl)imidazo[1,2-a]pyrazin-8-yl]-[4-[4-(oxetan-3-yl)piperazino]phenyl]amine

> <PUBCHEM_IUPAC_INCHI>
InChI=1S/C23H25N9O/c24-21-12-25-11-19(28-21)20-13-32-6-5-26-23(32)22(29-20)27-16-1-3-17(4-2-16)30-7-9-31(10-8-30)18-14-33-15-18/h1-6,11-13,18H,7-10,14-15H2,(H2,24,28)(H,27,29)

> <PUBCHEM_IUPAC_INCHIKEY>
XCIGZBVOUQVIPI-UHFFFAOYSA-N

> <PUBCHEM_XLOGP3_AA>
1.4

> <PUBCHEM_EXACT_MASS>
443.21820645

> <PUBCHEM_MOLECULAR_FORMULA>
C23H25N9O

> <PUBCHEM_MOLECULAR_WEIGHT>
443.5

> <PUBCHEM_OPENEYE_CAN_SMILES>
C1CN(CCN1C2COC2)C3=CC=C(C=C3)NC4=NC(=CN5C4=NC=C5)C6=CN=CC(=N6)N

> <PUBCHEM_OPENEYE_ISO_SMILES>
C1CN(CCN1C2COC2)C3=CC=C(C=C3)NC4=NC(=CN5C4=NC=C5)C6=CN=CC(=N6)N

> <PUBCHEM_CACTVS_TPSA>
110

> <PUBCHEM_MONOISOTOPIC_WEIGHT>
443.21820645

> <PUBCHEM_TOTAL_CHARGE>
0

> <PUBCHEM_HEAVY_ATOM_COUNT>
33

> <PUBCHEM_ATOM_DEF_STEREO_COUNT>
0

> <PUBCHEM_ATOM_UDEF_STEREO_COUNT>
0

> <PUBCHEM_BOND_DEF_STEREO_COUNT>
0

> <PUBCHEM_BOND_UDEF_STEREO_COUNT>
0

> <PUBCHEM_ISOTOPIC_ATOM_COUNT>
0

> <PUBCHEM_COMPONENT_COUNT>
1

> <PUBCHEM_CACTVS_TAUTO_COUNT>
-1

> <PUBCHEM_COORDINATE_TYPE>
1
5
255

> <PUBCHEM_BONDANNOTATIONS>
18  19  8
18  20  8
19  21  8
20  22  8
21  23  8
22  23  8
24  25  8
26  27  8
28  29  8
30  31  8
32  33  8
5  25  8
5  27  8
5  28  8
6  24  8
6  26  8
7  25  8
7  29  8
8  30  8
8  32  8
9  31  8
9  33  8

$$$$
124081779
  -OEChem-11282412102D

 68 70  0     1  0  0  0  0  0999 V2000
    7.8635    2.5267    0.0000 Cl  0  0  0  0  0  0  0  0  0  0  0  0
    7.8635    0.0000    0.0000 Cl  0  0  0  0  0  0  0  0  0  0  0  0
   13.5921    5.6734    0.0000 F   0  0  0  0  0  0  0  0  0  0  0  0
    1.3998    8.7276    0.0000 O   0  0  0  0  0  0  0  0  0  0  0  0
   10.9661    9.2080    0.0000 N   0  0  0  0  0  0  0  0  0  0  0  0
   10.0600    7.6526    0.0000 N   0  0  0  0  0  0  0  0  0  0  0  0
    9.1959    9.1975    0.0000 N   0  0  0  0  0  0  0  0  0  0  0  0
    3.9998    9.2175    0.0000 N   0  0  0  0  0  0  0  0  0  0  0  0
   13.5921    7.6734    0.0000 C   0  0  2  0  0  0  0  0  0  0  0  0
   12.7261    7.1734    0.0000 C   0  0  0  0  0  0  0  0  0  0  0  0
   13.5921    8.6734    0.0000 C   0  0  0  0  0  0  0  0  0  0  0  0
   11.8600    7.6734    0.0000 C   0  0  0  0  0  0  0  0  0  0  0  0
   12.7261    9.1734    0.0000 C   0  0  0  0  0  0  0  0  0  0  0  0
   11.8600    8.6734    0.0000 C   0  0  0  0  0  0  0  0  0  0  0  0
   14.4581    7.1734    0.0000 C   0  0  0  0  0  0  0  0  0  0  0  0
   14.5021    9.1802    0.0000 C   0  0  0  0  0  0  0  0  0  0  0  0
   12.7100   10.2149    0.0000 C   0  0  0  0  0  0  0  0  0  0  0  0
   10.9661    7.1387    0.0000 C   0  0  0  0  0  0  0  0  0  0  0  0
   14.4581    6.1734    0.0000 C   0  0  0  0  0  0  0  0  0  0  0  0
   15.3241    7.6734    0.0000 C   0  0  0  0  0  0  0  0  0  0  0  0
   14.5101   10.2218    0.0000 C   0  0  0  0  0  0  0  0  0  0  0  0
   13.6080   10.7426    0.0000 C   0  0  0  0  0  0  0  0  0  0  0  0
   10.0600    8.6942    0.0000 C   0  0  0  0  0  0  0  0  0  0  0  0
   15.3241    5.6734    0.0000 C   0  0  0  0  0  0  0  0  0  0  0  0
   16.1902    7.1734    0.0000 C   0  0  0  0  0  0  0  0  0  0  0  0
   16.1902    6.1734    0.0000 C   0  0  0  0  0  0  0  0  0  0  0  0
    8.3280    8.7009    0.0000 C   0  0  0  0  0  0  0  0  0  0  0  0
    6.5959    8.7075    0.0000 C   0  0  0  0  0  0  0  0  0  0  0  0
    5.7318    9.2109    0.0000 C   0  0  0  0  0  0  0  0  0  0  0  0
    7.4639    9.2042    0.0000 C   0  0  0  0  0  0  0  0  0  0  0  0
    4.8639    8.7142    0.0000 C   0  0  0  0  0  0  0  0  0  0  0  0
    8.3241    7.7009    0.0000 C   0  0  0  0  0  0  0  0  0  0  0  0
    6.5921    7.7076    0.0000 C   0  0  0  0  0  0  0  0  0  0  0  0
    7.4562    7.2042    0.0000 C   0  0  0  0  0  0  0  0  0  0  0  0
    3.1319    8.7209    0.0000 C   0  0  0  0  0  0  0  0  0  0  0  0
    2.2678    9.2242    0.0000 C   0  0  0  0  0  0  0  0  0  0  0  0
    0.5357    9.2309    0.0000 C   0  0  0  0  0  0  0  0  0  0  0  0
   13.5921    7.0534    0.0000 H   0  0  0  0  0  0  0  0  0  0  0  0
   12.3275    6.6984    0.0000 H   0  0  0  0  0  0  0  0  0  0  0  0
   13.1246    6.6984    0.0000 H   0  0  0  0  0  0  0  0  0  0  0  0
   15.0354    8.8640    0.0000 H   0  0  0  0  0  0  0  0  0  0  0  0
   12.1695   10.5187    0.0000 H   0  0  0  0  0  0  0  0  0  0  0  0
   10.9733    6.5188    0.0000 H   0  0  0  0  0  0  0  0  0  0  0  0
   15.3241    8.2934    0.0000 H   0  0  0  0  0  0  0  0  0  0  0  0
   15.0482   10.5297    0.0000 H   0  0  0  0  0  0  0  0  0  0  0  0
   13.6056   11.3626    0.0000 H   0  0  0  0  0  0  0  0  0  0  0  0
   15.3241    5.0534    0.0000 H   0  0  0  0  0  0  0  0  0  0  0  0
   16.7271    7.4834    0.0000 H   0  0  0  0  0  0  0  0  0  0  0  0
   16.7271    5.8634    0.0000 H   0  0  0  0  0  0  0  0  0  0  0  0
    9.1983    9.8175    0.0000 H   0  0  0  0  0  0  0  0  0  0  0  0
    6.1322    9.6843    0.0000 H   0  0  0  0  0  0  0  0  0  0  0  0
    5.3352    9.6874    0.0000 H   0  0  0  0  0  0  0  0  0  0  0  0
    7.4663    9.8242    0.0000 H   0  0  0  0  0  0  0  0  0  0  0  0
    4.4636    8.2408    0.0000 H   0  0  0  0  0  0  0  0  0  0  0  0
    5.2606    8.2377    0.0000 H   0  0  0  0  0  0  0  0  0  0  0  0
    8.8599    7.3888    0.0000 H   0  0  0  0  0  0  0  0  0  0  0  0
    6.0540    7.3996    0.0000 H   0  0  0  0  0  0  0  0  0  0  0  0
    7.4538    6.5842    0.0000 H   0  0  0  0  0  0  0  0  0  0  0  0
    4.0022    9.8376    0.0000 H   0  0  0  0  0  0  0  0  0  0  0  0
    2.7315    8.2475    0.0000 H   0  0  0  0  0  0  0  0  0  0  0  0
    3.5286    8.2444    0.0000 H   0  0  0  0  0  0  0  0  0  0  0  0
    2.6681    9.6976    0.0000 H   0  0  0  0  0  0  0  0  0  0  0  0
    1.8711    9.7007    0.0000 H   0  0  0  0  0  0  0  0  0  0  0  0
    0.8478    9.7666    0.0000 H   0  0  0  0  0  0  0  0  0  0  0  0
    0.0000    9.5430    0.0000 H   0  0  0  0  0  0  0  0  0  0  0  0
    0.2237    8.6952    0.0000 H   0  0  0  0  0  0  0  0  0  0  0  0
    8.8635    2.5267    0.0000 H   0  0  0  0  0  0  0  0  0  0  0  0
    8.8635    0.0000    0.0000 H   0  0  0  0  0  0  0  0  0  0  0  0
  1 67  1  0  0  0  0
  2 68  1  0  0  0  0
  3 19  1  0  0  0  0
  4 36  1  0  0  0  0
  4 37  1  0  0  0  0
  5 14  2  0  0  0  0
  5 23  1  0  0  0  0
  6 18  1  0  0  0  0
  6 23  2  0  0  0  0
  7 23  1  0  0  0  0
  7 27  1  0  0  0  0
  7 50  1  0  0  0  0
  8 31  1  0  0  0  0
  8 35  1  0  0  0  0
  8 59  1  0  0  0  0
  9 10  1  0  0  0  0
  9 11  1  0  0  0  0
  9 15  1  6  0  0  0
  9 38  1  0  0  0  0
 10 12  1  0  0  0  0
 10 39  1  0  0  0  0
 10 40  1  0  0  0  0
 11 13  1  0  0  0  0
 11 16  2  0  0  0  0
 12 14  1  0  0  0  0
 12 18  2  0  0  0  0
 13 14  1  0  0  0  0
 13 17  2  0  0  0  0
 15 19  1  0  0  0  0
 15 20  2  0  0  0  0
 16 21  1  0  0  0  0
 16 41  1  0  0  0  0
 17 22  1  0  0  0  0
 17 42  1  0  0  0  0
 18 43  1  0  0  0  0
 19 24  2  0  0  0  0
 20 25  1  0  0  0  0
 20 44  1  0  0  0  0
 21 22  2  0  0  0  0
 21 45  1  0  0  0  0
 22 46  1  0  0  0  0
 24 26  1  0  0  0  0
 24 47  1  0  0  0  0
 25 26  2  0  0  0  0
 25 48  1  0  0  0  0
 26 49  1  0  0  0  0
 27 30  1  0  0  0  0
 27 32  2  0  0  0  0
 28 29  1  0  0  0  0
 28 30  2  0  0  0  0
 28 33  1  0  0  0  0
 29 31  1  0  0  0  0
 29 51  1  0  0  0  0
 29 52  1  0  0  0  0
 30 53  1  0  0  0  0
 31 54  1  0  0  0  0
 31 55  1  0  0  0  0
 32 34  1  0  0  0  0
 32 56  1  0  0  0  0
 33 34  2  0  0  0  0
 33 57  1  0  0  0  0
 34 58  1  0  0  0  0
 35 36  1  0  0  0  0
 35 60  1  0  0  0  0
 35 61  1  0  0  0  0
 36 62  1  0  0  0  0
 36 63  1  0  0  0  0
 37 64  1  0  0  0  0
 37 65  1  0  0  0  0
 37 66  1  0  0  0  0
M  END
> <PUBCHEM_COMPOUND_CID>
124081779

> <PUBCHEM_COMPOUND_CANONICALIZED>
1

> <PUBCHEM_CACTVS_COMPLEXITY>
638

> <PUBCHEM_CACTVS_HBOND_ACCEPTOR>
6

> <PUBCHEM_CACTVS_HBOND_DONOR>
4

> <PUBCHEM_CACTVS_ROTATABLE_BOND>
9

> <PUBCHEM_CACTVS_SUBSKEYS>
AAADceB7oQAGAAAAAAAAAAAAAAAAAAAAAAA8YMGCAAAAAADx1AAAHwAQAAAADQjhng4/0JbIFACgAzRnZACCgCkxAqAJ2KAoZJiKKKLA2dGFJAhokALYyCcQgMAOgAAAQAAQAACQAASAACQAAAAAAAAAAA==

> <PUBCHEM_IUPAC_OPENEYE_NAME>
(6R)-6-(2-fluorophenyl)-N-[3-[2-(2-methoxyethylamino)ethyl]phenyl]-5,6-dihydrobenzo[h]quinazolin-2-amine;dihydrochloride

> <PUBCHEM_IUPAC_CAS_NAME>
(6R)-6-(2-fluorophenyl)-N-[3-[2-(2-methoxyethylamino)ethyl]phenyl]-5,6-dihydrobenzo[h]quinazolin-2-amine;dihydrochloride

> <PUBCHEM_IUPAC_NAME_MARKUP>
(6<I>R</I>)-6-(2-fluorophenyl)-<I>N</I>-[3-[2-(2-methoxyethylamino)ethyl]phenyl]-5,6-dihydrobenzo[h]quinazolin-2-amine;dihydrochloride

> <PUBCHEM_IUPAC_NAME>
(6R)-6-(2-fluorophenyl)-N-[3-[2-(2-methoxyethylamino)ethyl]phenyl]-5,6-dihydrobenzo[h]quinazolin-2-amine;dihydrochloride

> <PUBCHEM_IUPAC_SYSTEMATIC_NAME>
(6R)-6-(2-fluorophenyl)-N-[3-[2-(2-methoxyethylamino)ethyl]phenyl]-5,6-dihydrobenzo[h]quinazolin-2-amine;dihydrochloride

> <PUBCHEM_IUPAC_TRADITIONAL_NAME>
[(6R)-6-(2-fluorophenyl)-5,6-dihydrobenzo[h]quinazolin-2-yl]-[3-[2-(2-methoxyethylamino)ethyl]phenyl]amine;dihydrochloride

> <PUBCHEM_IUPAC_INCHI>
InChI=1S/C29H29FN4O.2ClH/c1-35-16-15-31-14-13-20-7-6-8-22(17-20)33-29-32-19-21-18-26(24-10-4-5-12-27(24)30)23-9-2-3-11-25(23)28(21)34-29;;/h2-12,17,19,26,31H,13-16,18H2,1H3,(H,32,33,34);2*1H/t26-;;/m1../s1

> <PUBCHEM_IUPAC_INCHIKEY>
OLDWOVJAXRWCGT-FBHGDYMESA-N

> <PUBCHEM_EXACT_MASS>
540.1858952

> <PUBCHEM_MOLECULAR_FORMULA>
C29H31Cl2FN4O

> <PUBCHEM_MOLECULAR_WEIGHT>
541.5

> <PUBCHEM_OPENEYE_CAN_SMILES>
COCCNCCC1=CC(=CC=C1)NC2=NC=C3CC(C4=CC=CC=C4C3=N2)C5=CC=CC=C5F.Cl.Cl

> <PUBCHEM_OPENEYE_ISO_SMILES>
COCCNCCC1=CC(=CC=C1)NC2=NC=C3C[C@H](C4=CC=CC=C4C3=N2)C5=CC=CC=C5F.Cl.Cl

> <PUBCHEM_CACTVS_TPSA>
59.1

> <PUBCHEM_MONOISOTOPIC_WEIGHT>
540.1858952

> <PUBCHEM_TOTAL_CHARGE>
0

> <PUBCHEM_HEAVY_ATOM_COUNT>
37

> <PUBCHEM_ATOM_DEF_STEREO_COUNT>
1

> <PUBCHEM_ATOM_UDEF_STEREO_COUNT>
0

> <PUBCHEM_BOND_DEF_STEREO_COUNT>
0

> <PUBCHEM_BOND_UDEF_STEREO_COUNT>
0

> <PUBCHEM_ISOTOPIC_ATOM_COUNT>
0

> <PUBCHEM_COMPONENT_COUNT>
3

> <PUBCHEM_CACTVS_TAUTO_COUNT>
-1

> <PUBCHEM_COORDINATE_TYPE>
1
5
255

> <PUBCHEM_BONDANNOTATIONS>
11  13  8
11  16  8
12  14  8
12  18  8
13  17  8
15  19  8
15  20  8
16  21  8
17  22  8
19  24  8
20  25  8
21  22  8
24  26  8
25  26  8
27  30  8
27  32  8
28  30  8
28  33  8
32  34  8
33  34  8
5  14  8
5  23  8
6  18  8
6  23  8
9  15  6

$$$$
135391059
  -OEChem-11282412102D

 74 76  0     1  0  0  0  0  0999 V2000
    2.5981    8.1200    0.0000 Cl  0  0  0  0  0  0  0  0  0  0  0  0
    6.9282    2.6200    0.0000 F   0  0  0  0  0  0  0  0  0  0  0  0
    0.0000    4.6200    0.0000 F   0  0  0  0  0  0  0  0  0  0  0  0
    0.3660    5.9860    0.0000 F   0  0  0  0  0  0  0  0  0  0  0  0
    1.3660    4.2540    0.0000 F   0  0  0  0  0  0  0  0  0  0  0  0
    6.0622    4.1200    0.0000 O   0  0  0  0  0  0  0  0  0  0  0  0
    7.7942    7.1200    0.0000 O   0  0  0  0  0  0  0  0  0  0  0  0
    7.2335   11.1200    0.0000 O   0  0  0  0  0  0  0  0  0  0  0  0
    2.9034   11.6200    0.0000 O   0  0  0  0  0  0  0  0  0  0  0  0
    6.3675   12.6200    0.0000 O   0  0  0  0  0  0  0  0  0  0  0  0
    3.7694   10.1200    0.0000 O   0  0  0  0  0  0  0  0  0  0  0  0
    6.9282    5.6200    0.0000 N   0  0  0  0  0  0  0  0  0  0  0  0
    8.6602    3.6200    0.0000 N   0  0  3  0  0  0  0  0  0  0  0  0
    4.3301    5.1200    0.0000 N   0  0  0  0  0  0  0  0  0  0  0  0
    9.5263    7.1200    0.0000 N   0  0  0  0  0  0  0  0  0  0  0  0
    9.5263    2.1200    0.0000 N   0  0  0  0  0  0  0  0  0  0  0  0
    8.6602    0.6200    0.0000 N   0  0  0  0  0  0  0  0  0  0  0  0
    6.9282    0.6200    0.0000 N   0  0  0  0  0  0  0  0  0  0  0  0
    7.7942    5.1200    0.0000 C   0  0  2  0  0  0  0  0  0  0  0  0
    8.6602    5.6200    0.0000 C   0  0  2  0  0  0  0  0  0  0  0  0
    7.7942    4.1200    0.0000 C   0  0  0  0  0  0  0  0  0  0  0  0
    9.5263    5.1200    0.0000 C   0  0  0  0  0  0  0  0  0  0  0  0
    9.5263    4.1200    0.0000 C   0  0  0  0  0  0  0  0  0  0  0  0
    6.9282    6.6200    0.0000 C   0  0  0  0  0  0  0  0  0  0  0  0
    5.1962    5.6200    0.0000 C   0  0  1  0  0  0  0  0  0  0  0  0
    6.0622    7.1200    0.0000 C   0  0  0  0  0  0  0  0  0  0  0  0
    6.0622    5.1200    0.0000 C   0  0  0  0  0  0  0  0  0  0  0  0
    5.1962    6.6200    0.0000 C   0  0  0  0  0  0  0  0  0  0  0  0
    8.6602    6.6200    0.0000 C   0  0  0  0  0  0  0  0  0  0  0  0
    8.6602    2.6200    0.0000 C   0  0  0  0  0  0  0  0  0  0  0  0
    7.7942    2.1200    0.0000 C   0  0  0  0  0  0  0  0  0  0  0  0
    3.4641    5.6200    0.0000 C   0  0  0  0  0  0  0  0  0  0  0  0
    7.7942    1.1200    0.0000 C   0  0  0  0  0  0  0  0  0  0  0  0
    2.5981    5.1200    0.0000 C   0  0  0  0  0  0  0  0  0  0  0  0
    3.4641    6.6200    0.0000 C   0  0  0  0  0  0  0  0  0  0  0  0
    9.5263    1.1200    0.0000 C   0  0  0  0  0  0  0  0  0  0  0  0
    1.7320    5.6200    0.0000 C   0  0  0  0  0  0  0  0  0  0  0  0
    2.5981    7.1200    0.0000 C   0  0  0  0  0  0  0  0  0  0  0  0
    1.7320    6.6200    0.0000 C   0  0  0  0  0  0  0  0  0  0  0  0
    0.8660    5.1200    0.0000 C   0  0  0  0  0  0  0  0  0  0  0  0
    5.5014   11.1200    0.0000 C   0  0  0  0  0  0  0  0  0  0  0  0
    4.6354   11.6200    0.0000 C   0  0  0  0  0  0  0  0  0  0  0  0
    6.3675   11.6200    0.0000 C   0  0  0  0  0  0  0  0  0  0  0  0
    3.7694   11.1200    0.0000 C   0  0  0  0  0  0  0  0  0  0  0  0
    7.2573    4.8100    0.0000 H   0  0  0  0  0  0  0  0  0  0  0  0
    9.1972    5.9300    0.0000 H   0  0  0  0  0  0  0  0  0  0  0  0
    7.1836    4.2277    0.0000 H   0  0  0  0  0  0  0  0  0  0  0  0
    7.5822    3.5374    0.0000 H   0  0  0  0  0  0  0  0  0  0  0  0
   10.1369    5.0123    0.0000 H   0  0  0  0  0  0  0  0  0  0  0  0
    9.7383    5.7026    0.0000 H   0  0  0  0  0  0  0  0  0  0  0  0
    9.7383    3.5374    0.0000 H   0  0  0  0  0  0  0  0  0  0  0  0
   10.1369    4.2277    0.0000 H   0  0  0  0  0  0  0  0  0  0  0  0
    7.5388    6.5123    0.0000 H   0  0  0  0  0  0  0  0  0  0  0  0
    7.1403    7.2026    0.0000 H   0  0  0  0  0  0  0  0  0  0  0  0
    4.6592    5.9300    0.0000 H   0  0  0  0  0  0  0  0  0  0  0  0
    6.4607    7.5950    0.0000 H   0  0  0  0  0  0  0  0  0  0  0  0
    5.6636    7.5950    0.0000 H   0  0  0  0  0  0  0  0  0  0  0  0
    4.9841    7.2026    0.0000 H   0  0  0  0  0  0  0  0  0  0  0  0
    4.5856    6.5123    0.0000 H   0  0  0  0  0  0  0  0  0  0  0  0
    4.3301    4.5000    0.0000 H   0  0  0  0  0  0  0  0  0  0  0  0
    9.5263    7.7400    0.0000 H   0  0  0  0  0  0  0  0  0  0  0  0
   10.0632    6.8100    0.0000 H   0  0  0  0  0  0  0  0  0  0  0  0
    2.5981    4.5000    0.0000 H   0  0  0  0  0  0  0  0  0  0  0  0
    4.0010    6.9300    0.0000 H   0  0  0  0  0  0  0  0  0  0  0  0
   10.0632    0.8100    0.0000 H   0  0  0  0  0  0  0  0  0  0  0  0
    1.1951    6.9300    0.0000 H   0  0  0  0  0  0  0  0  0  0  0  0
    6.9282    0.0000    0.0000 H   0  0  0  0  0  0  0  0  0  0  0  0
    6.3913    0.9300    0.0000 H   0  0  0  0  0  0  0  0  0  0  0  0
    5.1029   10.6451    0.0000 H   0  0  0  0  0  0  0  0  0  0  0  0
    5.9000   10.6451    0.0000 H   0  0  0  0  0  0  0  0  0  0  0  0
    5.0340   12.0949    0.0000 H   0  0  0  0  0  0  0  0  0  0  0  0
    4.2369   12.0949    0.0000 H   0  0  0  0  0  0  0  0  0  0  0  0
    7.7704   11.4300    0.0000 H   0  0  0  0  0  0  0  0  0  0  0  0
    2.3664   11.3100    0.0000 H   0  0  0  0  0  0  0  0  0  0  0  0
  1 38  1  0  0  0  0
  2 31  1  0  0  0  0
  3 40  1  0  0  0  0
  4 40  1  0  0  0  0
  5 40  1  0  0  0  0
  6 27  2  0  0  0  0
  7 29  2  0  0  0  0
  8 43  1  0  0  0  0
  8 73  1  0  0  0  0
  9 44  1  0  0  0  0
  9 74  1  0  0  0  0
 10 43  2  0  0  0  0
 11 44  2  0  0  0  0
 19 12  1  6  0  0  0
 12 24  1  0  0  0  0
 12 27  1  0  0  0  0
 13 21  1  0  0  0  0
 13 23  1  0  0  0  0
 13 30  1  0  0  0  0
 25 14  1  6  0  0  0
 14 32  1  0  0  0  0
 14 60  1  0  0  0  0
 15 29  1  0  0  0  0
 15 61  1  0  0  0  0
 15 62  1  0  0  0  0
 16 30  2  0  0  0  0
 16 36  1  0  0  0  0
 17 33  1  0  0  0  0
 17 36  2  0  0  0  0
 18 33  1  0  0  0  0
 18 67  1  0  0  0  0
 18 68  1  0  0  0  0
 19 20  1  0  0  0  0
 19 21  1  0  0  0  0
 19 45  1  0  0  0  0
 20 22  1  0  0  0  0
 20 29  1  1  0  0  0
 20 46  1  0  0  0  0
 21 47  1  0  0  0  0
 21 48  1  0  0  0  0
 22 23  1  0  0  0  0
 22 49  1  0  0  0  0
 22 50  1  0  0  0  0
 23 51  1  0  0  0  0
 23 52  1  0  0  0  0
 24 26  1  0  0  0  0
 24 53  1  0  0  0  0
 24 54  1  0  0  0  0
 25 27  1  0  0  0  0
 25 28  1  0  0  0  0
 25 55  1  0  0  0  0
 26 28  1  0  0  0  0
 26 56  1  0  0  0  0
 26 57  1  0  0  0  0
 28 58  1  0  0  0  0
 28 59  1  0  0  0  0
 30 31  1  0  0  0  0
 31 33  2  0  0  0  0
 32 34  1  0  0  0  0
 32 35  2  0  0  0  0
 34 37  2  0  0  0  0
 34 63  1  0  0  0  0
 35 38  1  0  0  0  0
 35 64  1  0  0  0  0
 36 65  1  0  0  0  0
 37 39  1  0  0  0  0
 37 40  1  0  0  0  0
 38 39  2  0  0  0  0
 39 66  1  0  0  0  0
 41 42  1  0  0  0  0
 41 43  1  0  0  0  0
 41 69  1  0  0  0  0
 41 70  1  0  0  0  0
 42 44  1  0  0  0  0
 42 71  1  0  0  0  0
 42 72  1  0  0  0  0
M  END
> <PUBCHEM_COMPOUND_CID>
135391059

> <PUBCHEM_COMPOUND_CANONICALIZED>
1

> <PUBCHEM_CACTVS_COMPLEXITY>
902

> <PUBCHEM_CACTVS_HBOND_ACCEPTOR>
15

> <PUBCHEM_CACTVS_HBOND_DONOR>
5

> <PUBCHEM_CACTVS_ROTATABLE_BOND>
8

> <PUBCHEM_CACTVS_SUBSKEYS>
AAADceB7ucAEAAAAAAAAAAAAAAAAAAAAAAA8WLEAAAAAAAABwAAAHwIQCAAADSrBmjw1+JfIEgCoAifzfACCgCkxB6AB2KGoZpiIaDrB2/GUZAhslgLIyCdfgQAOAAAAYAIAAAAAAADABAAAAAAAAAAAAA==

> <PUBCHEM_IUPAC_OPENEYE_NAME>
(3R,4S)-1-(6-amino-5-fluoro-pyrimidin-4-yl)-3-[(3R)-3-[3-chloro-5-(trifluoromethyl)anilino]-2-oxo-1-piperidyl]piperidine-4-carboxamide;succinic acid

> <PUBCHEM_IUPAC_CAS_NAME>
(3R,4S)-1-(6-amino-5-fluoro-4-pyrimidinyl)-3-[(3R)-3-[3-chloro-5-(trifluoromethyl)anilino]-2-oxo-1-piperidinyl]-4-piperidinecarboxamide;butanedioic acid

> <PUBCHEM_IUPAC_NAME_MARKUP>
(3<I>R</I>,4<I>S</I>)-1-(6-amino-5-fluoropyrimidin-4-yl)-3-[(3<I>R</I>)-3-[3-chloro-5-(trifluoromethyl)anilino]-2-oxopiperidin-1-yl]piperidine-4-carboxamide;butanedioic acid

> <PUBCHEM_IUPAC_NAME>
(3R,4S)-1-(6-amino-5-fluoropyrimidin-4-yl)-3-[(3R)-3-[3-chloro-5-(trifluoromethyl)anilino]-2-oxopiperidin-1-yl]piperidine-4-carboxamide;butanedioic acid

> <PUBCHEM_IUPAC_SYSTEMATIC_NAME>
(3R,4S)-1-(6-azanyl-5-fluoranyl-pyrimidin-4-yl)-3-[(3R)-3-[[3-chloranyl-5-(trifluoromethyl)phenyl]amino]-2-oxidanylidene-piperidin-1-yl]piperidine-4-carboxamide;butanedioic acid

> <PUBCHEM_IUPAC_TRADITIONAL_NAME>
(3R,4S)-1-(6-amino-5-fluoro-pyrimidin-4-yl)-3-[(3R)-3-[3-chloro-5-(trifluoromethyl)anilino]-2-keto-piperidino]isonipecotamide;succinic acid

> <PUBCHEM_IUPAC_INCHI>
InChI=1S/C22H24ClF4N7O2.C4H6O4/c23-12-6-11(22(25,26)27)7-13(8-12)32-15-2-1-4-34(21(15)36)16-9-33(5-3-14(16)19(29)35)20-17(24)18(28)30-10-31-20;5-3(6)1-2-4(7)8/h6-8,10,14-16,32H,1-5,9H2,(H2,29,35)(H2,28,30,31);1-2H2,(H,5,6)(H,7,8)/t14-,15+,16-;/m0./s1

> <PUBCHEM_IUPAC_INCHIKEY>
XGMXOWYNGVEUHA-CLUYDPBTSA-N

> <PUBCHEM_EXACT_MASS>
647.1882220

> <PUBCHEM_MOLECULAR_FORMULA>
C26H30ClF4N7O6

> <PUBCHEM_MOLECULAR_WEIGHT>
648.0

> <PUBCHEM_OPENEYE_CAN_SMILES>
C1CC(C(=O)N(C1)C2CN(CCC2C(=O)N)C3=NC=NC(=C3F)N)NC4=CC(=CC(=C4)C(F)(F)F)Cl.C(CC(=O)O)C(=O)O

> <PUBCHEM_OPENEYE_ISO_SMILES>
C1C[C@H](C(=O)N(C1)[C@H]2CN(CC[C@@H]2C(=O)N)C3=NC=NC(=C3F)N)NC4=CC(=CC(=C4)C(F)(F)F)Cl.C(CC(=O)O)C(=O)O

> <PUBCHEM_CACTVS_TPSA>
205

> <PUBCHEM_MONOISOTOPIC_WEIGHT>
647.1882220

> <PUBCHEM_TOTAL_CHARGE>
0

> <PUBCHEM_HEAVY_ATOM_COUNT>
44

> <PUBCHEM_ATOM_DEF_STEREO_COUNT>
3

> <PUBCHEM_ATOM_UDEF_STEREO_COUNT>
0

> <PUBCHEM_BOND_DEF_STEREO_COUNT>
0

> <PUBCHEM_BOND_UDEF_STEREO_COUNT>
0

> <PUBCHEM_ISOTOPIC_ATOM_COUNT>
0

> <PUBCHEM_COMPONENT_COUNT>
2

> <PUBCHEM_CACTVS_TAUTO_COUNT>
-1

> <PUBCHEM_COORDINATE_TYPE>
1
5
255

> <PUBCHEM_BONDANNOTATIONS>
19  12  6
25  14  6
16  30  8
16  36  8
17  33  8
17  36  8
20  29  5
30  31  8
31  33  8
32  34  8
32  35  8
34  37  8
35  38  8
37  39  8
38  39  8

$$$$
135431668
  -OEChem-11282412102D

 62 65  0     1  0  0  0  0  0999 V2000
    1.4534    3.6892    0.0000 F   0  0  0  0  0  0  0  0  0  0  0  0
    4.9338    0.6546    0.0000 O   0  0  0  0  0  0  0  0  0  0  0  0
    3.7238   12.8493    0.0000 O   0  0  0  0  0  0  0  0  0  0  0  0
    6.3219   12.3493    0.0000 O   0  0  0  0  0  0  0  0  0  0  0  0
    5.4558   13.8493    0.0000 O   0  0  0  0  0  0  0  0  0  0  0  0
    8.0087    5.5846    0.0000 N   0  0  0  0  0  0  0  0  0  0  0  0
    9.0087    7.3166    0.0000 N   0  0  0  0  0  0  0  0  0  0  0  0
    5.0369    3.6433    0.0000 N   0  0  0  0  0  0  0  0  0  0  0  0
    5.8416    2.2495    0.0000 N   0  0  0  0  0  0  0  0  0  0  0  0
    3.2018    0.6546    0.0000 N   0  0  0  0  0  0  0  0  0  0  0  0
    3.2018    3.6546    0.0000 N   0  0  0  0  0  0  0  0  0  0  0  0
    9.0087    5.5846    0.0000 C   0  0  0  0  0  0  0  0  0  0  0  0
    7.5087    6.4506    0.0000 C   0  0  0  0  0  0  0  0  0  0  0  0
    9.5087    6.4506    0.0000 C   0  0  0  0  0  0  0  0  0  0  0  0
    8.0087    7.3166    0.0000 C   0  0  0  0  0  0  0  0  0  0  0  0
    7.5087    4.7186    0.0000 C   0  0  0  0  0  0  0  0  0  0  0  0
    9.5087    8.1827    0.0000 C   0  0  0  0  0  0  0  0  0  0  0  0
    6.5087    4.7186    0.0000 C   0  0  0  0  0  0  0  0  0  0  0  0
    6.0087    3.8526    0.0000 C   0  0  0  0  0  0  0  0  0  0  0  0
    8.0087    3.8526    0.0000 C   0  0  0  0  0  0  0  0  0  0  0  0
    6.5087    2.9865    0.0000 C   0  0  0  0  0  0  0  0  0  0  0  0
    7.5087    2.9865    0.0000 C   0  0  0  0  0  0  0  0  0  0  0  0
    4.9338    2.6546    0.0000 C   0  0  0  0  0  0  0  0  0  0  0  0
    4.0678    2.1546    0.0000 C   0  0  0  0  0  0  0  0  0  0  0  0
    3.2018    2.6546    0.0000 C   0  0  0  0  0  0  0  0  0  0  0  0
    2.3358    2.1546    0.0000 C   0  0  0  0  0  0  0  0  0  0  0  0
    4.0678    1.1546    0.0000 C   0  0  0  0  0  0  0  0  0  0  0  0
    2.3358    1.1546    0.0000 C   0  0  0  0  0  0  0  0  0  0  0  0
    1.4418    2.6893    0.0000 C   0  0  0  0  0  0  0  0  0  0  0  0
    1.4418    0.6200    0.0000 C   0  0  0  0  0  0  0  0  0  0  0  0
    0.5357    2.1754    0.0000 C   0  0  0  0  0  0  0  0  0  0  0  0
    0.5357    1.1338    0.0000 C   0  0  0  0  0  0  0  0  0  0  0  0
    4.5898   12.3493    0.0000 C   0  0  3  0  0  0  0  0  0  0  0  0
    4.5898   11.3493    0.0000 C   0  0  0  0  0  0  0  0  0  0  0  0
    5.4558   12.8493    0.0000 C   0  0  0  0  0  0  0  0  0  0  0  0
    8.9010    4.9740    0.0000 H   0  0  0  0  0  0  0  0  0  0  0  0
    9.5913    5.3726    0.0000 H   0  0  0  0  0  0  0  0  0  0  0  0
    7.0337    6.8492    0.0000 H   0  0  0  0  0  0  0  0  0  0  0  0
    7.0337    6.0521    0.0000 H   0  0  0  0  0  0  0  0  0  0  0  0
    9.9836    6.0521    0.0000 H   0  0  0  0  0  0  0  0  0  0  0  0
    9.9836    6.8492    0.0000 H   0  0  0  0  0  0  0  0  0  0  0  0
    8.1164    7.9272    0.0000 H   0  0  0  0  0  0  0  0  0  0  0  0
    7.4261    7.5287    0.0000 H   0  0  0  0  0  0  0  0  0  0  0  0
   10.0456    7.8727    0.0000 H   0  0  0  0  0  0  0  0  0  0  0  0
    9.8187    8.7196    0.0000 H   0  0  0  0  0  0  0  0  0  0  0  0
    8.9718    8.4927    0.0000 H   0  0  0  0  0  0  0  0  0  0  0  0
    6.1987    5.2555    0.0000 H   0  0  0  0  0  0  0  0  0  0  0  0
    8.6287    3.8526    0.0000 H   0  0  0  0  0  0  0  0  0  0  0  0
    7.8187    2.4496    0.0000 H   0  0  0  0  0  0  0  0  0  0  0  0
    4.5754    4.0574    0.0000 H   0  0  0  0  0  0  0  0  0  0  0  0
    3.2018    0.0346    0.0000 H   0  0  0  0  0  0  0  0  0  0  0  0
    1.4490    0.0000    0.0000 H   0  0  0  0  0  0  0  0  0  0  0  0
    2.6648    3.9646    0.0000 H   0  0  0  0  0  0  0  0  0  0  0  0
    3.7387    3.9646    0.0000 H   0  0  0  0  0  0  0  0  0  0  0  0
    0.0000    2.4875    0.0000 H   0  0  0  0  0  0  0  0  0  0  0  0
    0.0000    0.8217    0.0000 H   0  0  0  0  0  0  0  0  0  0  0  0
    4.0529   12.0393    0.0000 H   0  0  0  0  0  0  0  0  0  0  0  0
    3.9698   11.3493    0.0000 H   0  0  0  0  0  0  0  0  0  0  0  0
    4.5898   10.7293    0.0000 H   0  0  0  0  0  0  0  0  0  0  0  0
    5.2098   11.3493    0.0000 H   0  0  0  0  0  0  0  0  0  0  0  0
    3.1868   12.5393    0.0000 H   0  0  0  0  0  0  0  0  0  0  0  0
    6.8588   12.6593    0.0000 H   0  0  0  0  0  0  0  0  0  0  0  0
  1 29  1  0  0  0  0
  2 27  2  0  0  0  0
  3 33  1  0  0  0  0
  3 61  1  0  0  0  0
  4 35  1  0  0  0  0
  4 62  1  0  0  0  0
  5 35  2  0  0  0  0
  6 12  1  0  0  0  0
  6 13  1  0  0  0  0
  6 16  1  0  0  0  0
  7 14  1  0  0  0  0
  7 15  1  0  0  0  0
  7 17  1  0  0  0  0
  8 19  1  0  0  0  0
  8 23  1  0  0  0  0
  8 50  1  0  0  0  0
  9 21  1  0  0  0  0
  9 23  2  0  0  0  0
 10 27  1  0  0  0  0
 10 28  1  0  0  0  0
 10 51  1  0  0  0  0
 11 25  1  0  0  0  0
 11 53  1  0  0  0  0
 11 54  1  0  0  0  0
 12 14  1  0  0  0  0
 12 36  1  0  0  0  0
 12 37  1  0  0  0  0
 13 15  1  0  0  0  0
 13 38  1  0  0  0  0
 13 39  1  0  0  0  0
 14 40  1  0  0  0  0
 14 41  1  0  0  0  0
 15 42  1  0  0  0  0
 15 43  1  0  0  0  0
 16 18  2  0  0  0  0
 16 20  1  0  0  0  0
 17 44  1  0  0  0  0
 17 45  1  0  0  0  0
 17 46  1  0  0  0  0
 18 19  1  0  0  0  0
 18 47  1  0  0  0  0
 19 21  2  0  0  0  0
 20 22  2  0  0  0  0
 20 48  1  0  0  0  0
 21 22  1  0  0  0  0
 22 49  1  0  0  0  0
 23 24  1  0  0  0  0
 24 25  2  0  0  0  0
 24 27  1  0  0  0  0
 25 26  1  0  0  0  0
 26 28  2  0  0  0  0
 26 29  1  0  0  0  0
 28 30  1  0  0  0  0
 29 31  2  0  0  0  0
 30 32  2  0  0  0  0
 30 52  1  0  0  0  0
 31 32  1  0  0  0  0
 31 55  1  0  0  0  0
 32 56  1  0  0  0  0
 33 34  1  0  0  0  0
 33 35  1  0  0  0  0
 33 57  1  0  0  0  0
 34 58  1  0  0  0  0
 34 59  1  0  0  0  0
 34 60  1  0  0  0  0
M  END
> <PUBCHEM_COMPOUND_CID>
135431668

> <PUBCHEM_COMPOUND_CANONICALIZED>
1

> <PUBCHEM_CACTVS_COMPLEXITY>
737

> <PUBCHEM_CACTVS_HBOND_ACCEPTOR>
9

> <PUBCHEM_CACTVS_HBOND_DONOR>
5

> <PUBCHEM_CACTVS_ROTATABLE_BOND>
3

> <PUBCHEM_CACTVS_SUBSKEYS>
AAADceB7uQAAAAAAAAAAAAAAAAAAAWAAAAA8YIEAAAAAAFiB9AAAHwAQCAAADBzhnw4z2LfJkgCoAyfyfAKCgC2hEqAJmSF4dNiJeKrA2dGUZAholALJyWcQgAAOAACAAAQCACAAAQAACAQAQAAAAAAAAA==

> <PUBCHEM_IUPAC_OPENEYE_NAME>
4-amino-5-fluoro-3-[6-(4-methylpiperazin-1-yl)-1H-benzimidazol-2-yl]-1H-quinolin-2-one;2-hydroxypropanoic acid

> <PUBCHEM_IUPAC_CAS_NAME>
4-amino-5-fluoro-3-[6-(4-methyl-1-piperazinyl)-1H-benzimidazol-2-yl]-1H-quinolin-2-one;2-hydroxypropanoic acid

> <PUBCHEM_IUPAC_NAME_MARKUP>
4-amino-5-fluoro-3-[6-(4-methylpiperazin-1-yl)-1<I>H</I>-benzimidazol-2-yl]-1<I>H</I>-quinolin-2-one;2-hydroxypropanoic acid

> <PUBCHEM_IUPAC_NAME>
4-amino-5-fluoro-3-[6-(4-methylpiperazin-1-yl)-1H-benzimidazol-2-yl]-1H-quinolin-2-one;2-hydroxypropanoic acid

> <PUBCHEM_IUPAC_SYSTEMATIC_NAME>
4-azanyl-5-fluoranyl-3-[6-(4-methylpiperazin-1-yl)-1H-benzimidazol-2-yl]-1H-quinolin-2-one;2-oxidanylpropanoic acid

> <PUBCHEM_IUPAC_TRADITIONAL_NAME>
4-amino-5-fluoro-3-[6-(4-methylpiperazino)-1H-benzimidazol-2-yl]carbostyril;lactic acid

> <PUBCHEM_IUPAC_INCHI>
InChI=1S/C21H21FN6O.C3H6O3/c1-27-7-9-28(10-8-27)12-5-6-14-16(11-12)25-20(24-14)18-19(23)17-13(22)3-2-4-15(17)26-21(18)29;1-2(4)3(5)6/h2-6,11H,7-10H2,1H3,(H,24,25)(H3,23,26,29);2,4H,1H3,(H,5,6)

> <PUBCHEM_IUPAC_INCHIKEY>
ZRHDKBOBHHFLBW-UHFFFAOYSA-N

> <PUBCHEM_EXACT_MASS>
482.20778153

> <PUBCHEM_MOLECULAR_FORMULA>
C24H27FN6O4

> <PUBCHEM_MOLECULAR_WEIGHT>
482.5

> <PUBCHEM_OPENEYE_CAN_SMILES>
CC(C(=O)O)O.CN1CCN(CC1)C2=CC3=C(C=C2)N=C(N3)C4=C(C5=C(C=CC=C5F)NC4=O)N

> <PUBCHEM_OPENEYE_ISO_SMILES>
CC(C(=O)O)O.CN1CCN(CC1)C2=CC3=C(C=C2)N=C(N3)C4=C(C5=C(C=CC=C5F)NC4=O)N

> <PUBCHEM_CACTVS_TPSA>
148

> <PUBCHEM_MONOISOTOPIC_WEIGHT>
482.20778153

> <PUBCHEM_TOTAL_CHARGE>
0

> <PUBCHEM_HEAVY_ATOM_COUNT>
35

> <PUBCHEM_ATOM_DEF_STEREO_COUNT>
0

> <PUBCHEM_ATOM_UDEF_STEREO_COUNT>
1

> <PUBCHEM_BOND_DEF_STEREO_COUNT>
0

> <PUBCHEM_BOND_UDEF_STEREO_COUNT>
0

> <PUBCHEM_ISOTOPIC_ATOM_COUNT>
0

> <PUBCHEM_COMPONENT_COUNT>
2

> <PUBCHEM_CACTVS_TAUTO_COUNT>
-1

> <PUBCHEM_COORDINATE_TYPE>
1
5
255

> <PUBCHEM_BONDANNOTATIONS>
10  27  8
10  28  8
16  18  8
16  20  8
18  19  8
19  21  8
20  22  8
21  22  8
24  25  8
24  27  8
25  26  8
26  28  8
26  29  8
28  30  8
29  31  8
33  3  3
30  32  8
31  32  8
8  19  8
8  23  8
9  21  8
9  23  8

$$$$
139593390
  -OEChem-11282412102D

 64 67  0     0  0  0  0  0  0999 V2000
   11.2749    5.0586    0.0000 Cl  0  0  0  0  0  0  0  0  0  0  0  0
    0.0000    0.6200    0.0000 O   0  0  0  0  0  0  0  0  0  0  0  0
    7.8106    4.0854    0.0000 O   0  0  0  0  0  0  0  0  0  0  0  0
    4.3301    7.1200    0.0000 N   0  0  0  0  0  0  0  0  0  0  0  0
    2.5981    2.1200    0.0000 N   0  0  0  0  0  0  0  0  0  0  0  0
    5.1962    5.6200    0.0000 N   0  0  0  0  0  0  0  0  0  0  0  0
    6.0622    7.1200    0.0000 N   0  0  0  0  0  0  0  0  0  0  0  0
    6.0622    4.1200    0.0000 N   0  0  0  0  0  0  0  0  0  0  0  0
    1.7320   10.6200    0.0000 N   0  0  0  0  0  0  0  0  0  0  0  0
    8.7282    5.5992    0.0000 N   0  0  0  0  0  0  0  0  0  0  0  0
    8.7282    6.6408    0.0000 N   0  0  0  0  0  0  0  0  0  0  0  0
    2.5981    8.1200    0.0000 C   0  0  0  0  0  0  0  0  0  0  0  0
    3.4641    8.6200    0.0000 C   0  0  0  0  0  0  0  0  0  0  0  0
    2.5981    7.1200    0.0000 C   0  0  0  0  0  0  0  0  0  0  0  0
    4.3301    8.1200    0.0000 C   0  0  0  0  0  0  0  0  0  0  0  0
    3.4641    6.6200    0.0000 C   0  0  0  0  0  0  0  0  0  0  0  0
    1.7320    8.6200    0.0000 C   0  0  0  0  0  0  0  0  0  0  0  0
    0.8660    1.1200    0.0000 C   0  0  0  0  0  0  0  0  0  0  0  0
    0.8660    2.1200    0.0000 C   0  0  0  0  0  0  0  0  0  0  0  0
    1.7320    0.6200    0.0000 C   0  0  0  0  0  0  0  0  0  0  0  0
    1.7320    2.6200    0.0000 C   0  0  0  0  0  0  0  0  0  0  0  0
    2.5981    1.1200    0.0000 C   0  0  0  0  0  0  0  0  0  0  0  0
    5.1962    6.6200    0.0000 C   0  0  0  0  0  0  0  0  0  0  0  0
    3.4641    2.6200    0.0000 C   0  0  0  0  0  0  0  0  0  0  0  0
    1.7320    9.6200    0.0000 C   0  0  0  0  0  0  0  0  0  0  0  0
    3.4641    3.6200    0.0000 C   0  0  0  0  0  0  0  0  0  0  0  0
    4.3301    2.1200    0.0000 C   0  0  0  0  0  0  0  0  0  0  0  0
    6.0622    5.1200    0.0000 C   0  0  0  0  0  0  0  0  0  0  0  0
    5.1962    3.6200    0.0000 C   0  0  0  0  0  0  0  0  0  0  0  0
    6.9282    6.6200    0.0000 C   0  0  0  0  0  0  0  0  0  0  0  0
    6.9282    5.6200    0.0000 C   0  0  0  0  0  0  0  0  0  0  0  0
    4.3301    4.1200    0.0000 C   0  0  0  0  0  0  0  0  0  0  0  0
    5.1962    2.6200    0.0000 C   0  0  0  0  0  0  0  0  0  0  0  0
    7.8222    5.0853    0.0000 C   0  0  0  0  0  0  0  0  0  0  0  0
    7.8222    7.1547    0.0000 C   0  0  0  0  0  0  0  0  0  0  0  0
    2.5981    8.7400    0.0000 H   0  0  0  0  0  0  0  0  0  0  0  0
    3.8626    9.0950    0.0000 H   0  0  0  0  0  0  0  0  0  0  0  0
    3.0656    9.0950    0.0000 H   0  0  0  0  0  0  0  0  0  0  0  0
    1.9875    7.2277    0.0000 H   0  0  0  0  0  0  0  0  0  0  0  0
    2.3860    6.5374    0.0000 H   0  0  0  0  0  0  0  0  0  0  0  0
    4.9407    8.0123    0.0000 H   0  0  0  0  0  0  0  0  0  0  0  0
    4.5422    8.7026    0.0000 H   0  0  0  0  0  0  0  0  0  0  0  0
    3.0656    6.1450    0.0000 H   0  0  0  0  0  0  0  0  0  0  0  0
    3.8626    6.1450    0.0000 H   0  0  0  0  0  0  0  0  0  0  0  0
    1.1215    8.7277    0.0000 H   0  0  0  0  0  0  0  0  0  0  0  0
    1.5200    8.0374    0.0000 H   0  0  0  0  0  0  0  0  0  0  0  0
    0.8660    0.5000    0.0000 H   0  0  0  0  0  0  0  0  0  0  0  0
    0.6540    2.7026    0.0000 H   0  0  0  0  0  0  0  0  0  0  0  0
    0.2554    2.0123    0.0000 H   0  0  0  0  0  0  0  0  0  0  0  0
    1.3335    0.1451    0.0000 H   0  0  0  0  0  0  0  0  0  0  0  0
    2.1306    0.1451    0.0000 H   0  0  0  0  0  0  0  0  0  0  0  0
    2.1306    3.0950    0.0000 H   0  0  0  0  0  0  0  0  0  0  0  0
    1.3335    3.0950    0.0000 H   0  0  0  0  0  0  0  0  0  0  0  0
    2.8101    0.5374    0.0000 H   0  0  0  0  0  0  0  0  0  0  0  0
    3.2087    1.2277    0.0000 H   0  0  0  0  0  0  0  0  0  0  0  0
    0.0000    0.0000    0.0000 H   0  0  0  0  0  0  0  0  0  0  0  0
    2.9272    3.9300    0.0000 H   0  0  0  0  0  0  0  0  0  0  0  0
    4.3301    1.5000    0.0000 H   0  0  0  0  0  0  0  0  0  0  0  0
    4.3301    4.7400    0.0000 H   0  0  0  0  0  0  0  0  0  0  0  0
    5.7331    2.3100    0.0000 H   0  0  0  0  0  0  0  0  0  0  0  0
    6.5991    3.8100    0.0000 H   0  0  0  0  0  0  0  0  0  0  0  0
    7.8150    7.7746    0.0000 H   0  0  0  0  0  0  0  0  0  0  0  0
    9.2640    5.2871    0.0000 H   0  0  0  0  0  0  0  0  0  0  0  0
   12.2749    5.0586    0.0000 H   0  0  0  0  0  0  0  0  0  0  0  0
  1 64  1  0  0  0  0
  2 18  1  0  0  0  0
  2 56  1  0  0  0  0
  3 34  2  0  0  0  0
  4 15  1  0  0  0  0
  4 16  1  0  0  0  0
  4 23  1  0  0  0  0
  5 21  1  0  0  0  0
  5 22  1  0  0  0  0
  5 24  1  0  0  0  0
  6 23  1  0  0  0  0
  6 28  2  0  0  0  0
  7 23  2  0  0  0  0
  7 30  1  0  0  0  0
  8 28  1  0  0  0  0
  8 29  1  0  0  0  0
  8 61  1  0  0  0  0
  9 25  3  0  0  0  0
 10 11  1  0  0  0  0
 10 34  1  0  0  0  0
 10 63  1  0  0  0  0
 11 35  2  0  0  0  0
 12 13  1  0  0  0  0
 12 14  1  0  0  0  0
 12 17  1  0  0  0  0
 12 36  1  0  0  0  0
 13 15  1  0  0  0  0
 13 37  1  0  0  0  0
 13 38  1  0  0  0  0
 14 16  1  0  0  0  0
 14 39  1  0  0  0  0
 14 40  1  0  0  0  0
 15 41  1  0  0  0  0
 15 42  1  0  0  0  0
 16 43  1  0  0  0  0
 16 44  1  0  0  0  0
 17 25  1  0  0  0  0
 17 45  1  0  0  0  0
 17 46  1  0  0  0  0
 18 19  1  0  0  0  0
 18 20  1  0  0  0  0
 18 47  1  0  0  0  0
 19 21  1  0  0  0  0
 19 48  1  0  0  0  0
 19 49  1  0  0  0  0
 20 22  1  0  0  0  0
 20 50  1  0  0  0  0
 20 51  1  0  0  0  0
 21 52  1  0  0  0  0
 21 53  1  0  0  0  0
 22 54  1  0  0  0  0
 22 55  1  0  0  0  0
 24 26  2  0  0  0  0
 24 27  1  0  0  0  0
 26 32  1  0  0  0  0
 26 57  1  0  0  0  0
 27 33  2  0  0  0  0
 27 58  1  0  0  0  0
 28 31  1  0  0  0  0
 29 32  2  0  0  0  0
 29 33  1  0  0  0  0
 30 31  2  0  0  0  0
 30 35  1  0  0  0  0
 31 34  1  0  0  0  0
 32 59  1  0  0  0  0
 33 60  1  0  0  0  0
 35 62  1  0  0  0  0
M  END
> <PUBCHEM_COMPOUND_CID>
139593390

> <PUBCHEM_COMPOUND_CANONICALIZED>
1

> <PUBCHEM_CACTVS_COMPLEXITY>
775

> <PUBCHEM_CACTVS_HBOND_ACCEPTOR>
9

> <PUBCHEM_CACTVS_HBOND_DONOR>
4

> <PUBCHEM_CACTVS_ROTATABLE_BOND>
5

> <PUBCHEM_CACTVS_SUBSKEYS>
AAADceB78AAEAAAAAAAAAAAAAAAAAAAAAAA8WLECAAAAAACBwAAAHgAYCAAADRzhngYx8JfqEgC4BzdzdACSgCklAqAbmCE4ZNiIuHrA2dGEZYhqmALIyW8QAAAKAACAAAAAAAAAAQAAAAAAAAAAAAAAAA==

> <PUBCHEM_IUPAC_OPENEYE_NAME>
2-[1-[4-[4-(4-hydroxy-1-piperidyl)anilino]-5-oxo-6H-pyrimido[4,5-d]pyridazin-2-yl]-4-piperidyl]acetonitrile;hydrochloride

> <PUBCHEM_IUPAC_CAS_NAME>
2-[1-[4-[4-(4-hydroxy-1-piperidinyl)anilino]-5-oxo-6H-pyrimido[4,5-d]pyridazin-2-yl]-4-piperidinyl]acetonitrile;hydrochloride

> <PUBCHEM_IUPAC_NAME_MARKUP>
2-[1-[4-[4-(4-hydroxypiperidin-1-yl)anilino]-5-oxo-6<I>H</I>-pyrimido[4,5-d]pyridazin-2-yl]piperidin-4-yl]acetonitrile;hydrochloride

> <PUBCHEM_IUPAC_NAME>
2-[1-[4-[4-(4-hydroxypiperidin-1-yl)anilino]-5-oxo-6H-pyrimido[4,5-d]pyridazin-2-yl]piperidin-4-yl]acetonitrile;hydrochloride

> <PUBCHEM_IUPAC_SYSTEMATIC_NAME>
2-[1-[5-oxidanylidene-4-[[4-(4-oxidanylpiperidin-1-yl)phenyl]amino]-6H-pyrimido[4,5-d]pyridazin-2-yl]piperidin-4-yl]ethanenitrile;hydrochloride

> <PUBCHEM_IUPAC_TRADITIONAL_NAME>
2-[1-[4-[4-(4-hydroxypiperidino)anilino]-5-keto-6H-pyrimido[4,5-d]pyridazin-2-yl]-4-piperidyl]acetonitrile;hydrochloride

> <PUBCHEM_IUPAC_INCHI>
InChI=1S/C24H28N8O2.ClH/c25-10-5-16-6-11-32(12-7-16)24-28-20-15-26-30-23(34)21(20)22(29-24)27-17-1-3-18(4-2-17)31-13-8-19(33)9-14-31;/h1-4,15-16,19,33H,5-9,11-14H2,(H,30,34)(H,27,28,29);1H

> <PUBCHEM_IUPAC_INCHIKEY>
KAYUSRUJDSKRCJ-UHFFFAOYSA-N

> <PUBCHEM_EXACT_MASS>
496.2101999

> <PUBCHEM_MOLECULAR_FORMULA>
C24H29ClN8O2

> <PUBCHEM_MOLECULAR_WEIGHT>
497.0

> <PUBCHEM_OPENEYE_CAN_SMILES>
C1CN(CCC1CC#N)C2=NC3=C(C(=O)NN=C3)C(=N2)NC4=CC=C(C=C4)N5CCC(CC5)O.Cl

> <PUBCHEM_OPENEYE_ISO_SMILES>
C1CN(CCC1CC#N)C2=NC3=C(C(=O)NN=C3)C(=N2)NC4=CC=C(C=C4)N5CCC(CC5)O.Cl

> <PUBCHEM_CACTVS_TPSA>
130

> <PUBCHEM_MONOISOTOPIC_WEIGHT>
496.2101999

> <PUBCHEM_TOTAL_CHARGE>
0

> <PUBCHEM_HEAVY_ATOM_COUNT>
35

> <PUBCHEM_ATOM_DEF_STEREO_COUNT>
0

> <PUBCHEM_ATOM_UDEF_STEREO_COUNT>
0

> <PUBCHEM_BOND_DEF_STEREO_COUNT>
0

> <PUBCHEM_BOND_UDEF_STEREO_COUNT>
0

> <PUBCHEM_ISOTOPIC_ATOM_COUNT>
0

> <PUBCHEM_COMPONENT_COUNT>
2

> <PUBCHEM_CACTVS_TAUTO_COUNT>
-1

> <PUBCHEM_COORDINATE_TYPE>
1
5
255

> <PUBCHEM_BONDANNOTATIONS>
10  11  8
10  34  8
11  35  8
24  26  8
24  27  8
26  32  8
27  33  8
28  31  8
29  32  8
29  33  8
30  31  8
30  35  8
31  34  8
6  23  8
6  28  8
7  23  8
7  30  8

$$$$
72202474
  -OEChem-11282412102D

 54 57  0     1  0  0  0  0  0999 V2000
    2.0000    2.2796    0.0000 F   0  0  0  0  0  0  0  0  0  0  0  0
   11.1171   -1.8273    0.0000 O   0  0  0  0  0  0  0  0  0  0  0  0
    8.9282    2.2796    0.0000 N   0  0  0  0  0  0  0  0  0  0  0  0
    6.3301    1.7796    0.0000 N   0  0  0  0  0  0  0  0  0  0  0  0
    8.0622    1.7796    0.0000 N   0  0  0  0  0  0  0  0  0  0  0  0
    9.8744    3.5843    0.0000 N   0  0  0  0  0  0  0  0  0  0  0  0
   13.3847   -3.1902    0.0000 N   0  0  0  0  0  0  0  0  0  0  0  0
    5.4641    2.2796    0.0000 C   0  0  1  0  0  0  0  0  0  0  0  0
    9.8744    1.9748    0.0000 C   0  0  0  0  0  0  0  0  0  0  0  0
    4.5981    1.7796    0.0000 C   0  0  0  0  0  0  0  0  0  0  0  0
    7.1962    2.2796    0.0000 C   0  0  0  0  0  0  0  0  0  0  0  0
    8.9282    3.2796    0.0000 C   0  0  0  0  0  0  0  0  0  0  0  0
   10.1851    1.0243    0.0000 C   0  0  0  0  0  0  0  0  0  0  0  0
    5.4641    3.2796    0.0000 C   0  0  0  0  0  0  0  0  0  0  0  0
    7.1962    3.2796    0.0000 C   0  0  0  0  0  0  0  0  0  0  0  0
    8.0622    3.7796    0.0000 C   0  0  0  0  0  0  0  0  0  0  0  0
   10.4580    2.7796    0.0000 C   0  0  0  0  0  0  0  0  0  0  0  0
    3.7320    2.2796    0.0000 C   0  0  0  0  0  0  0  0  0  0  0  0
    4.5981    0.7795    0.0000 C   0  0  0  0  0  0  0  0  0  0  0  0
   11.1636    0.8181    0.0000 C   0  0  0  0  0  0  0  0  0  0  0  0
    9.5172    0.2800    0.0000 C   0  0  0  0  0  0  0  0  0  0  0  0
   12.4062   -2.9840    0.0000 C   0  0  1  0  0  0  0  0  0  0  0  0
   10.8064   -0.8767    0.0000 C   0  0  0  0  0  0  0  0  0  0  0  0
   12.0956   -2.0335    0.0000 C   0  0  0  0  0  0  0  0  0  0  0  0
   11.4743   -0.1324    0.0000 C   0  0  0  0  0  0  0  0  0  0  0  0
    9.8279   -0.6705    0.0000 C   0  0  0  0  0  0  0  0  0  0  0  0
    2.8660    1.7796    0.0000 C   0  0  0  0  0  0  0  0  0  0  0  0
    3.7320    0.2795    0.0000 C   0  0  0  0  0  0  0  0  0  0  0  0
   11.7384   -3.7283    0.0000 C   0  0  0  0  0  0  0  0  0  0  0  0
    2.8660    0.7795    0.0000 C   0  0  0  0  0  0  0  0  0  0  0  0
    5.4641    1.6596    0.0000 H   0  0  0  0  0  0  0  0  0  0  0  0
    6.3301    1.1596    0.0000 H   0  0  0  0  0  0  0  0  0  0  0  0
    6.0841    3.2796    0.0000 H   0  0  0  0  0  0  0  0  0  0  0  0
    5.4641    3.8996    0.0000 H   0  0  0  0  0  0  0  0  0  0  0  0
    4.8441    3.2796    0.0000 H   0  0  0  0  0  0  0  0  0  0  0  0
    6.6592    3.5896    0.0000 H   0  0  0  0  0  0  0  0  0  0  0  0
    8.0622    4.3995    0.0000 H   0  0  0  0  0  0  0  0  0  0  0  0
   11.0780    2.7796    0.0000 H   0  0  0  0  0  0  0  0  0  0  0  0
    3.7320    2.8996    0.0000 H   0  0  0  0  0  0  0  0  0  0  0  0
    5.1350    0.4695    0.0000 H   0  0  0  0  0  0  0  0  0  0  0  0
   11.5777    1.2795    0.0000 H   0  0  0  0  0  0  0  0  0  0  0  0
    8.9106    0.4078    0.0000 H   0  0  0  0  0  0  0  0  0  0  0  0
   12.5989   -3.5733    0.0000 H   0  0  0  0  0  0  0  0  0  0  0  0
   12.7094   -1.9461    0.0000 H   0  0  0  0  0  0  0  0  0  0  0  0
   12.1161   -1.4138    0.0000 H   0  0  0  0  0  0  0  0  0  0  0  0
   12.0809   -0.2603    0.0000 H   0  0  0  0  0  0  0  0  0  0  0  0
    9.4138   -1.1320    0.0000 H   0  0  0  0  0  0  0  0  0  0  0  0
    3.7320   -0.3405    0.0000 H   0  0  0  0  0  0  0  0  0  0  0  0
   11.2769   -3.3142    0.0000 H   0  0  0  0  0  0  0  0  0  0  0  0
   11.3243   -4.1898    0.0000 H   0  0  0  0  0  0  0  0  0  0  0  0
   12.1999   -4.1424    0.0000 H   0  0  0  0  0  0  0  0  0  0  0  0
    2.3291    0.4695    0.0000 H   0  0  0  0  0  0  0  0  0  0  0  0
   13.5774   -3.7796    0.0000 H   0  0  0  0  0  0  0  0  0  0  0  0
   13.7988   -2.7288    0.0000 H   0  0  0  0  0  0  0  0  0  0  0  0
  1 27  1  0  0  0  0
  2 23  1  0  0  0  0
  2 24  1  0  0  0  0
  3  5  1  0  0  0  0
  3  9  1  0  0  0  0
  3 12  1  0  0  0  0
  8  4  1  1  0  0  0
  4 11  1  0  0  0  0
  4 32  1  0  0  0  0
  5 11  2  0  0  0  0
  6 12  2  0  0  0  0
  6 17  1  0  0  0  0
 22  7  1  6  0  0  0
  7 53  1  0  0  0  0
  7 54  1  0  0  0  0
  8 10  1  0  0  0  0
  8 14  1  0  0  0  0
  8 31  1  0  0  0  0
  9 13  1  0  0  0  0
  9 17  2  0  0  0  0
 10 18  2  0  0  0  0
 10 19  1  0  0  0  0
 11 15  1  0  0  0  0
 12 16  1  0  0  0  0
 13 20  2  0  0  0  0
 13 21  1  0  0  0  0
 14 33  1  0  0  0  0
 14 34  1  0  0  0  0
 14 35  1  0  0  0  0
 15 16  2  0  0  0  0
 15 36  1  0  0  0  0
 16 37  1  0  0  0  0
 17 38  1  0  0  0  0
 18 27  1  0  0  0  0
 18 39  1  0  0  0  0
 19 28  2  0  0  0  0
 19 40  1  0  0  0  0
 20 25  1  0  0  0  0
 20 41  1  0  0  0  0
 21 26  2  0  0  0  0
 21 42  1  0  0  0  0
 22 24  1  0  0  0  0
 22 29  1  0  0  0  0
 22 43  1  0  0  0  0
 23 25  2  0  0  0  0
 23 26  1  0  0  0  0
 24 44  1  0  0  0  0
 24 45  1  0  0  0  0
 25 46  1  0  0  0  0
 26 47  1  0  0  0  0
 27 30  2  0  0  0  0
 28 30  1  0  0  0  0
 28 48  1  0  0  0  0
 29 49  1  0  0  0  0
 29 50  1  0  0  0  0
 29 51  1  0  0  0  0
 30 52  1  0  0  0  0
M  END
> <PUBCHEM_COMPOUND_CID>
72202474

> <PUBCHEM_COMPOUND_CANONICALIZED>
1

> <PUBCHEM_CACTVS_COMPLEXITY>
532

> <PUBCHEM_CACTVS_HBOND_ACCEPTOR>
6

> <PUBCHEM_CACTVS_HBOND_DONOR>
2

> <PUBCHEM_CACTVS_ROTATABLE_BOND>
7

> <PUBCHEM_CACTVS_SUBSKEYS>
AAADceB7oQAAAAAAAAAAAAAAAAAAAWAAAAA8YIAAAAAAAFgB9AAAHwAYAAAADCzhnw4/tp7IFACiAzZnZACSjC8xMqAd2KA+fJiObuLEuZuXuCj82BPI6CeQ0IMOIAAAAAAAAABAAAAAAAAAAAAAAAAAAA==

> <PUBCHEM_IUPAC_OPENEYE_NAME>
3-[4-[(2R)-2-aminopropoxy]phenyl]-N-[(1R)-1-(3-fluorophenyl)ethyl]imidazo[1,2-b]pyridazin-6-amine

> <PUBCHEM_IUPAC_CAS_NAME>
3-[4-[(2R)-2-aminopropoxy]phenyl]-N-[(1R)-1-(3-fluorophenyl)ethyl]-6-imidazo[1,2-b]pyridazinamine

> <PUBCHEM_IUPAC_NAME_MARKUP>
3-[4-[(2<I>R</I>)-2-aminopropoxy]phenyl]-<I>N</I>-[(1<I>R</I>)-1-(3-fluorophenyl)ethyl]imidazo[1,2-b]pyridazin-6-amine

> <PUBCHEM_IUPAC_NAME>
3-[4-[(2R)-2-aminopropoxy]phenyl]-N-[(1R)-1-(3-fluorophenyl)ethyl]imidazo[1,2-b]pyridazin-6-amine

> <PUBCHEM_IUPAC_SYSTEMATIC_NAME>
3-[4-[(2R)-2-azanylpropoxy]phenyl]-N-[(1R)-1-(3-fluorophenyl)ethyl]imidazo[1,2-b]pyridazin-6-amine

> <PUBCHEM_IUPAC_TRADITIONAL_NAME>
[3-[4-[(2R)-2-aminopropoxy]phenyl]imidazo[1,2-b]pyridazin-6-yl]-[(1R)-1-(3-fluorophenyl)ethyl]amine

> <PUBCHEM_IUPAC_INCHI>
InChI=1S/C23H24FN5O/c1-15(25)14-30-20-8-6-17(7-9-20)21-13-26-23-11-10-22(28-29(21)23)27-16(2)18-4-3-5-19(24)12-18/h3-13,15-16H,14,25H2,1-2H3,(H,27,28)/t15-,16-/m1/s1

> <PUBCHEM_IUPAC_INCHIKEY>
HEVHTYMYEMEBPX-HZPDHXFCSA-N

> <PUBCHEM_XLOGP3_AA>
3.8

> <PUBCHEM_EXACT_MASS>
405.19648857

> <PUBCHEM_MOLECULAR_FORMULA>
C23H24FN5O

> <PUBCHEM_MOLECULAR_WEIGHT>
405.5

> <PUBCHEM_OPENEYE_CAN_SMILES>
CC(COC1=CC=C(C=C1)C2=CN=C3N2N=C(C=C3)NC(C)C4=CC(=CC=C4)F)N

> <PUBCHEM_OPENEYE_ISO_SMILES>
C[C@H](COC1=CC=C(C=C1)C2=CN=C3N2N=C(C=C3)N[C@H](C)C4=CC(=CC=C4)F)N

> <PUBCHEM_CACTVS_TPSA>
77.5

> <PUBCHEM_MONOISOTOPIC_WEIGHT>
405.19648857

> <PUBCHEM_TOTAL_CHARGE>
0

> <PUBCHEM_HEAVY_ATOM_COUNT>
30

> <PUBCHEM_ATOM_DEF_STEREO_COUNT>
2

> <PUBCHEM_ATOM_UDEF_STEREO_COUNT>
0

> <PUBCHEM_BOND_DEF_STEREO_COUNT>
0

> <PUBCHEM_BOND_UDEF_STEREO_COUNT>
0

> <PUBCHEM_ISOTOPIC_ATOM_COUNT>
0

> <PUBCHEM_COMPONENT_COUNT>
1

> <PUBCHEM_CACTVS_TAUTO_COUNT>
-1

> <PUBCHEM_COORDINATE_TYPE>
1
5
255

> <PUBCHEM_BONDANNOTATIONS>
10  18  8
10  19  8
11  15  8
12  16  8
13  20  8
13  21  8
15  16  8
18  27  8
19  28  8
20  25  8
21  26  8
23  25  8
23  26  8
27  30  8
28  30  8
3  12  8
3  5  8
3  9  8
8  4  5
5  11  8
6  12  8
6  17  8
22  7  6
9  17  8

$$$$
86279996
  -OEChem-11282412102D

 61 64  0     0  0  0  0  0  0999 V2000
    4.4643    9.6546    0.0000 Br  0  0  0  0  0  0  0  0  0  0  0  0
    0.0000    6.3686    0.0000 Cl  0  0  0  0  0  0  0  0  0  0  0  0
    4.4643    5.5854    0.0000 O   0  0  0  0  0  0  0  0  0  0  0  0
    9.6768    3.6200    0.0000 O   0  0  0  0  0  0  0  0  0  0  0  0
    7.9448   11.6200    0.0000 N   0  0  0  0  0  0  0  0  0  0  0  0
    7.9448    8.6200    0.0000 N   0  0  0  0  0  0  0  0  0  0  0  0
    7.0788    7.1200    0.0000 N   0  0  0  0  0  0  0  0  0  0  0  0
    6.2127    8.6200    0.0000 N   0  0  0  0  0  0  0  0  0  0  0  0
    6.2127    5.6200    0.0000 N   0  0  0  0  0  0  0  0  0  0  0  0
    3.5467    7.0992    0.0000 N   0  0  0  0  0  0  0  0  0  0  0  0
    7.9448    9.6200    0.0000 C   0  0  0  0  0  0  0  0  0  0  0  0
    8.8108   10.1200    0.0000 C   0  0  0  0  0  0  0  0  0  0  0  0
    7.0788   10.1200    0.0000 C   0  0  0  0  0  0  0  0  0  0  0  0
    8.8108   11.1200    0.0000 C   0  0  0  0  0  0  0  0  0  0  0  0
    7.0788   11.1200    0.0000 C   0  0  0  0  0  0  0  0  0  0  0  0
    7.9448   12.6200    0.0000 C   0  0  0  0  0  0  0  0  0  0  0  0
    7.0788    8.1200    0.0000 C   0  0  0  0  0  0  0  0  0  0  0  0
    6.2127    6.6200    0.0000 C   0  0  0  0  0  0  0  0  0  0  0  0
    5.3467    8.1200    0.0000 C   0  0  0  0  0  0  0  0  0  0  0  0
    5.3467    7.1200    0.0000 C   0  0  0  0  0  0  0  0  0  0  0  0
    4.4528    8.6547    0.0000 C   0  0  0  0  0  0  0  0  0  0  0  0
    4.4528    6.5853    0.0000 C   0  0  0  0  0  0  0  0  0  0  0  0
    3.5467    8.1408    0.0000 C   0  0  0  0  0  0  0  0  0  0  0  0
    7.0788    5.1200    0.0000 C   0  0  0  0  0  0  0  0  0  0  0  0
    7.9448    5.6200    0.0000 C   0  0  0  0  0  0  0  0  0  0  0  0
    7.0788    4.1200    0.0000 C   0  0  0  0  0  0  0  0  0  0  0  0
    8.8108    5.1200    0.0000 C   0  0  0  0  0  0  0  0  0  0  0  0
    7.9448    3.6200    0.0000 C   0  0  0  0  0  0  0  0  0  0  0  0
    8.8108    4.1200    0.0000 C   0  0  0  0  0  0  0  0  0  0  0  0
    9.6768    2.6200    0.0000 C   0  0  0  0  0  0  0  0  0  0  0  0
    8.8108    2.1200    0.0000 C   0  0  0  0  0  0  0  0  0  0  0  0
   10.5429    2.1200    0.0000 C   0  0  0  0  0  0  0  0  0  0  0  0
    8.8108    1.1200    0.0000 C   0  0  0  0  0  0  0  0  0  0  0  0
   10.5429    1.1200    0.0000 C   0  0  0  0  0  0  0  0  0  0  0  0
    9.6768    0.6200    0.0000 C   0  0  0  0  0  0  0  0  0  0  0  0
    7.4078    9.3100    0.0000 H   0  0  0  0  0  0  0  0  0  0  0  0
    9.0229    9.5374    0.0000 H   0  0  0  0  0  0  0  0  0  0  0  0
    9.4214   10.2277    0.0000 H   0  0  0  0  0  0  0  0  0  0  0  0
    6.4682   10.2277    0.0000 H   0  0  0  0  0  0  0  0  0  0  0  0
    6.8667    9.5374    0.0000 H   0  0  0  0  0  0  0  0  0  0  0  0
    9.4214   11.0123    0.0000 H   0  0  0  0  0  0  0  0  0  0  0  0
    9.0229   11.7026    0.0000 H   0  0  0  0  0  0  0  0  0  0  0  0
    6.8667   11.7026    0.0000 H   0  0  0  0  0  0  0  0  0  0  0  0
    6.4682   11.0123    0.0000 H   0  0  0  0  0  0  0  0  0  0  0  0
    8.4817    8.3100    0.0000 H   0  0  0  0  0  0  0  0  0  0  0  0
    8.5648   12.6200    0.0000 H   0  0  0  0  0  0  0  0  0  0  0  0
    7.9448   13.2400    0.0000 H   0  0  0  0  0  0  0  0  0  0  0  0
    7.3248   12.6200    0.0000 H   0  0  0  0  0  0  0  0  0  0  0  0
    5.6758    5.3100    0.0000 H   0  0  0  0  0  0  0  0  0  0  0  0
    3.0110    8.4529    0.0000 H   0  0  0  0  0  0  0  0  0  0  0  0
    3.0110    6.7871    0.0000 H   0  0  0  0  0  0  0  0  0  0  0  0
    7.9448    6.2400    0.0000 H   0  0  0  0  0  0  0  0  0  0  0  0
    6.5418    3.8100    0.0000 H   0  0  0  0  0  0  0  0  0  0  0  0
    9.3477    5.4300    0.0000 H   0  0  0  0  0  0  0  0  0  0  0  0
    7.9448    3.0000    0.0000 H   0  0  0  0  0  0  0  0  0  0  0  0
    8.2739    2.4300    0.0000 H   0  0  0  0  0  0  0  0  0  0  0  0
   11.0798    2.4300    0.0000 H   0  0  0  0  0  0  0  0  0  0  0  0
    8.2739    0.8100    0.0000 H   0  0  0  0  0  0  0  0  0  0  0  0
   11.0798    0.8100    0.0000 H   0  0  0  0  0  0  0  0  0  0  0  0
    9.6768    0.0000    0.0000 H   0  0  0  0  0  0  0  0  0  0  0  0
    1.0000    6.3686    0.0000 H   0  0  0  0  0  0  0  0  0  0  0  0
  1 21  1  0  0  0  0
  2 61  1  0  0  0  0
  3 22  2  0  0  0  0
  4 29  1  0  0  0  0
  4 30  1  0  0  0  0
  5 14  1  0  0  0  0
  5 15  1  0  0  0  0
  5 16  1  0  0  0  0
  6 11  1  0  0  0  0
  6 17  1  0  0  0  0
  6 45  1  0  0  0  0
  7 17  1  0  0  0  0
  7 18  2  0  0  0  0
  8 17  2  0  0  0  0
  8 19  1  0  0  0  0
  9 18  1  0  0  0  0
  9 24  1  0  0  0  0
  9 49  1  0  0  0  0
 10 22  1  0  0  0  0
 10 23  1  0  0  0  0
 10 51  1  0  0  0  0
 11 12  1  0  0  0  0
 11 13  1  0  0  0  0
 11 36  1  0  0  0  0
 12 14  1  0  0  0  0
 12 37  1  0  0  0  0
 12 38  1  0  0  0  0
 13 15  1  0  0  0  0
 13 39  1  0  0  0  0
 13 40  1  0  0  0  0
 14 41  1  0  0  0  0
 14 42  1  0  0  0  0
 15 43  1  0  0  0  0
 15 44  1  0  0  0  0
 16 46  1  0  0  0  0
 16 47  1  0  0  0  0
 16 48  1  0  0  0  0
 18 20  1  0  0  0  0
 19 20  2  0  0  0  0
 19 21  1  0  0  0  0
 20 22  1  0  0  0  0
 21 23  2  0  0  0  0
 23 50  1  0  0  0  0
 24 25  2  0  0  0  0
 24 26  1  0  0  0  0
 25 27  1  0  0  0  0
 25 52  1  0  0  0  0
 26 28  2  0  0  0  0
 26 53  1  0  0  0  0
 27 29  2  0  0  0  0
 27 54  1  0  0  0  0
 28 29  1  0  0  0  0
 28 55  1  0  0  0  0
 30 31  2  0  0  0  0
 30 32  1  0  0  0  0
 31 33  1  0  0  0  0
 31 56  1  0  0  0  0
 32 34  2  0  0  0  0
 32 57  1  0  0  0  0
 33 35  2  0  0  0  0
 33 58  1  0  0  0  0
 34 35  1  0  0  0  0
 34 59  1  0  0  0  0
 35 60  1  0  0  0  0
M  END
> <PUBCHEM_COMPOUND_CID>
86279996

> <PUBCHEM_COMPOUND_CANONICALIZED>
1

> <PUBCHEM_CACTVS_COMPLEXITY>
716

> <PUBCHEM_CACTVS_HBOND_ACCEPTOR>
7

> <PUBCHEM_CACTVS_HBOND_DONOR>
4

> <PUBCHEM_CACTVS_ROTATABLE_BOND>
6

> <PUBCHEM_CACTVS_SUBSKEYS>
AAADceB7sAAEEAAAAAAAAAAAAAAAAAAAAAA8eIECAAAAAACB0AAAHgBQAAABjCzBngQz9pfIFACoAyd2dACCiCklIqAJmKEubPiMLnrE+duGPajs0hPI6XewQAAIAEAAAAAAAAAAgAAAAAAAAAAAAAAAAA==

> <PUBCHEM_IUPAC_OPENEYE_NAME>
8-bromo-2-[(1-methyl-4-piperidyl)amino]-4-(4-phenoxyanilino)-6H-pyrido[4,3-d]pyrimidin-5-one;hydrochloride

> <PUBCHEM_IUPAC_CAS_NAME>
8-bromo-2-[(1-methyl-4-piperidinyl)amino]-4-(4-phenoxyanilino)-6H-pyrido[4,3-d]pyrimidin-5-one;hydrochloride

> <PUBCHEM_IUPAC_NAME_MARKUP>
8-bromo-2-[(1-methylpiperidin-4-yl)amino]-4-(4-phenoxyanilino)-6<I>H</I>-pyrido[4,3-d]pyrimidin-5-one;hydrochloride

> <PUBCHEM_IUPAC_NAME>
8-bromo-2-[(1-methylpiperidin-4-yl)amino]-4-(4-phenoxyanilino)-6H-pyrido[4,3-d]pyrimidin-5-one;hydrochloride

> <PUBCHEM_IUPAC_SYSTEMATIC_NAME>
8-bromanyl-2-[(1-methylpiperidin-4-yl)amino]-4-[(4-phenoxyphenyl)amino]-6H-pyrido[4,3-d]pyrimidin-5-one;hydrochloride

> <PUBCHEM_IUPAC_TRADITIONAL_NAME>
8-bromo-2-[(1-methyl-4-piperidyl)amino]-4-(4-phenoxyanilino)-6H-pyrido[4,3-d]pyrimidin-5-one;hydrochloride

> <PUBCHEM_IUPAC_INCHI>
InChI=1S/C25H25BrN6O2.ClH/c1-32-13-11-17(12-14-32)29-25-30-22-20(26)15-27-24(33)21(22)23(31-25)28-16-7-9-19(10-8-16)34-18-5-3-2-4-6-18;/h2-10,15,17H,11-14H2,1H3,(H,27,33)(H2,28,29,30,31);1H

> <PUBCHEM_IUPAC_INCHIKEY>
UDYYCTJUUMIMHX-UHFFFAOYSA-N

> <PUBCHEM_EXACT_MASS>
556.09891

> <PUBCHEM_MOLECULAR_FORMULA>
C25H26BrClN6O2

> <PUBCHEM_MOLECULAR_WEIGHT>
557.9

> <PUBCHEM_OPENEYE_CAN_SMILES>
CN1CCC(CC1)NC2=NC3=C(C(=O)NC=C3Br)C(=N2)NC4=CC=C(C=C4)OC5=CC=CC=C5.Cl

> <PUBCHEM_OPENEYE_ISO_SMILES>
CN1CCC(CC1)NC2=NC3=C(C(=O)NC=C3Br)C(=N2)NC4=CC=C(C=C4)OC5=CC=CC=C5.Cl

> <PUBCHEM_CACTVS_TPSA>
91.4

> <PUBCHEM_MONOISOTOPIC_WEIGHT>
556.09891

> <PUBCHEM_TOTAL_CHARGE>
0

> <PUBCHEM_HEAVY_ATOM_COUNT>
35

> <PUBCHEM_ATOM_DEF_STEREO_COUNT>
0

> <PUBCHEM_ATOM_UDEF_STEREO_COUNT>
0

> <PUBCHEM_BOND_DEF_STEREO_COUNT>
0

> <PUBCHEM_BOND_UDEF_STEREO_COUNT>
0

> <PUBCHEM_ISOTOPIC_ATOM_COUNT>
0

> <PUBCHEM_COMPONENT_COUNT>
2

> <PUBCHEM_CACTVS_TAUTO_COUNT>
-1

> <PUBCHEM_COORDINATE_TYPE>
1
5
255

> <PUBCHEM_BONDANNOTATIONS>
10  22  8
10  23  8
18  20  8
19  20  8
19  21  8
20  22  8
21  23  8
24  25  8
24  26  8
25  27  8
26  28  8
27  29  8
28  29  8
30  31  8
30  32  8
31  33  8
32  34  8
33  35  8
34  35  8
7  17  8
7  18  8
8  17  8
8  19  8

$$$$
71479709
  -OEChem-11282412102D

 59 62  0     0  0  0  0  0  0999 V2000
    3.7320    0.5000    0.0000 O   0  0  0  0  0  0  0  0  0  0  0  0
    9.7942    2.0000    0.0000 O   0  0  0  0  0  0  0  0  0  0  0  0
    4.5981   -1.0000    0.0000 N   0  0  0  0  0  0  0  0  0  0  0  0
    8.0622   -2.0000    0.0000 N   0  0  0  0  0  0  0  0  0  0  0  0
    8.9282   -3.5000    0.0000 N   0  0  0  0  0  0  0  0  0  0  0  0
   10.6603   -3.5000    0.0000 N   0  0  0  0  0  0  0  0  0  0  0  0
   11.5263   -2.0000    0.0000 N   0  0  0  0  0  0  0  0  0  0  0  0
    6.3301   -2.0000    0.0000 C   0  0  0  0  0  0  0  0  0  0  0  0
    5.4641   -2.5000    0.0000 C   0  0  0  0  0  0  0  0  0  0  0  0
    6.3301   -1.0000    0.0000 C   0  0  0  0  0  0  0  0  0  0  0  0
    4.5981   -2.0000    0.0000 C   0  0  0  0  0  0  0  0  0  0  0  0
    5.4641   -0.5000    0.0000 C   0  0  0  0  0  0  0  0  0  0  0  0
    7.1962   -2.5000    0.0000 C   0  0  0  0  0  0  0  0  0  0  0  0
    3.7320   -0.5000    0.0000 C   0  0  0  0  0  0  0  0  0  0  0  0
    8.9282   -2.5000    0.0000 C   0  0  0  0  0  0  0  0  0  0  0  0
    2.8660   -1.0000    0.0000 C   0  0  0  0  0  0  0  0  0  0  0  0
    9.7942   -2.0000    0.0000 C   0  0  0  0  0  0  0  0  0  0  0  0
    9.7942   -1.0000    0.0000 C   0  0  0  0  0  0  0  0  0  0  0  0
   10.6603   -2.5000    0.0000 C   0  0  0  0  0  0  0  0  0  0  0  0
    2.0000   -0.5000    0.0000 C   0  0  0  0  0  0  0  0  0  0  0  0
    9.7942   -4.0000    0.0000 C   0  0  0  0  0  0  0  0  0  0  0  0
   10.6603   -0.5000    0.0000 C   0  0  0  0  0  0  0  0  0  0  0  0
    8.9282   -0.5000    0.0000 C   0  0  0  0  0  0  0  0  0  0  0  0
   10.6603    0.5000    0.0000 C   0  0  0  0  0  0  0  0  0  0  0  0
    8.9282    0.5000    0.0000 C   0  0  0  0  0  0  0  0  0  0  0  0
    9.7942    1.0000    0.0000 C   0  0  0  0  0  0  0  0  0  0  0  0
   10.6603    2.5000    0.0000 C   0  0  0  0  0  0  0  0  0  0  0  0
   11.5263    2.0000    0.0000 C   0  0  0  0  0  0  0  0  0  0  0  0
   10.6603    3.5000    0.0000 C   0  0  0  0  0  0  0  0  0  0  0  0
   12.3923    2.5000    0.0000 C   0  0  0  0  0  0  0  0  0  0  0  0
   11.5263    4.0000    0.0000 C   0  0  0  0  0  0  0  0  0  0  0  0
   12.3923    3.5000    0.0000 C   0  0  0  0  0  0  0  0  0  0  0  0
    6.8671   -1.6900    0.0000 H   0  0  0  0  0  0  0  0  0  0  0  0
    5.0656   -2.9750    0.0000 H   0  0  0  0  0  0  0  0  0  0  0  0
    5.8626   -2.9750    0.0000 H   0  0  0  0  0  0  0  0  0  0  0  0
    6.9407   -1.1077    0.0000 H   0  0  0  0  0  0  0  0  0  0  0  0
    6.5422   -0.4174    0.0000 H   0  0  0  0  0  0  0  0  0  0  0  0
    3.9875   -1.8923    0.0000 H   0  0  0  0  0  0  0  0  0  0  0  0
    4.3860   -2.5826    0.0000 H   0  0  0  0  0  0  0  0  0  0  0  0
    5.8626   -0.0251    0.0000 H   0  0  0  0  0  0  0  0  0  0  0  0
    5.0656   -0.0251    0.0000 H   0  0  0  0  0  0  0  0  0  0  0  0
    6.7976   -2.9750    0.0000 H   0  0  0  0  0  0  0  0  0  0  0  0
    7.5947   -2.9750    0.0000 H   0  0  0  0  0  0  0  0  0  0  0  0
    8.0622   -1.3800    0.0000 H   0  0  0  0  0  0  0  0  0  0  0  0
    2.8660   -1.6200    0.0000 H   0  0  0  0  0  0  0  0  0  0  0  0
    2.0000    0.1200    0.0000 H   0  0  0  0  0  0  0  0  0  0  0  0
    1.4631   -0.8100    0.0000 H   0  0  0  0  0  0  0  0  0  0  0  0
    9.7942   -4.6200    0.0000 H   0  0  0  0  0  0  0  0  0  0  0  0
   11.1972   -0.8100    0.0000 H   0  0  0  0  0  0  0  0  0  0  0  0
    8.3913   -0.8100    0.0000 H   0  0  0  0  0  0  0  0  0  0  0  0
   12.0632   -2.3100    0.0000 H   0  0  0  0  0  0  0  0  0  0  0  0
   11.5263   -1.3800    0.0000 H   0  0  0  0  0  0  0  0  0  0  0  0
   11.1972    0.8100    0.0000 H   0  0  0  0  0  0  0  0  0  0  0  0
    8.3913    0.8100    0.0000 H   0  0  0  0  0  0  0  0  0  0  0  0
   11.5263    1.3800    0.0000 H   0  0  0  0  0  0  0  0  0  0  0  0
   10.1233    3.8100    0.0000 H   0  0  0  0  0  0  0  0  0  0  0  0
   12.9292    2.1900    0.0000 H   0  0  0  0  0  0  0  0  0  0  0  0
   11.5263    4.6200    0.0000 H   0  0  0  0  0  0  0  0  0  0  0  0
   12.9292    3.8100    0.0000 H   0  0  0  0  0  0  0  0  0  0  0  0
  1 14  2  0  0  0  0
  2 26  1  0  0  0  0
  2 27  1  0  0  0  0
  3 11  1  0  0  0  0
  3 12  1  0  0  0  0
  3 14  1  0  0  0  0
  4 13  1  0  0  0  0
  4 15  1  0  0  0  0
  4 44  1  0  0  0  0
  5 15  2  0  0  0  0
  5 21  1  0  0  0  0
  6 19  1  0  0  0  0
  6 21  2  0  0  0  0
  7 19  1  0  0  0  0
  7 51  1  0  0  0  0
  7 52  1  0  0  0  0
  8  9  1  0  0  0  0
  8 10  1  0  0  0  0
  8 13  1  0  0  0  0
  8 33  1  0  0  0  0
  9 11  1  0  0  0  0
  9 34  1  0  0  0  0
  9 35  1  0  0  0  0
 10 12  1  0  0  0  0
 10 36  1  0  0  0  0
 10 37  1  0  0  0  0
 11 38  1  0  0  0  0
 11 39  1  0  0  0  0
 12 40  1  0  0  0  0
 12 41  1  0  0  0  0
 13 42  1  0  0  0  0
 13 43  1  0  0  0  0
 14 16  1  0  0  0  0
 15 17  1  0  0  0  0
 16 20  2  0  0  0  0
 16 45  1  0  0  0  0
 17 18  1  0  0  0  0
 17 19  2  0  0  0  0
 18 22  2  0  0  0  0
 18 23  1  0  0  0  0
 20 46  1  0  0  0  0
 20 47  1  0  0  0  0
 21 48  1  0  0  0  0
 22 24  1  0  0  0  0
 22 49  1  0  0  0  0
 23 25  2  0  0  0  0
 23 50  1  0  0  0  0
 24 26  2  0  0  0  0
 24 53  1  0  0  0  0
 25 26  1  0  0  0  0
 25 54  1  0  0  0  0
 27 28  2  0  0  0  0
 27 29  1  0  0  0  0
 28 30  1  0  0  0  0
 28 55  1  0  0  0  0
 29 31  2  0  0  0  0
 29 56  1  0  0  0  0
 30 32  2  0  0  0  0
 30 57  1  0  0  0  0
 31 32  1  0  0  0  0
 31 58  1  0  0  0  0
 32 59  1  0  0  0  0
M  END
> <PUBCHEM_COMPOUND_CID>
71479709

> <PUBCHEM_COMPOUND_CANONICALIZED>
1

> <PUBCHEM_CACTVS_COMPLEXITY>
595

> <PUBCHEM_CACTVS_HBOND_ACCEPTOR>
6

> <PUBCHEM_CACTVS_HBOND_DONOR>
2

> <PUBCHEM_CACTVS_ROTATABLE_BOND>
7

> <PUBCHEM_CACTVS_SUBSKEYS>
AAADceB7sAAAAAAAAAAAAAAAAAAAAAAAAAA8eIEAAAAAAAAB0AAAHgAQAAAADQTBmgQ1tpfIFACoAiNzdACCiCkxIKAJ2KAuTNiMLiLE+VuGPCis1hPI6KeQwNAOoAAAAAAAAABAAAAAAAAAAAAAAAAAAA==

> <PUBCHEM_IUPAC_OPENEYE_NAME>
1-[4-[[[6-amino-5-(4-phenoxyphenyl)pyrimidin-4-yl]amino]methyl]-1-piperidyl]prop-2-en-1-one

> <PUBCHEM_IUPAC_CAS_NAME>
1-[4-[[[6-amino-5-(4-phenoxyphenyl)-4-pyrimidinyl]amino]methyl]-1-piperidinyl]-2-propen-1-one

> <PUBCHEM_IUPAC_NAME_MARKUP>
1-[4-[[[6-amino-5-(4-phenoxyphenyl)pyrimidin-4-yl]amino]methyl]piperidin-1-yl]prop-2-en-1-one

> <PUBCHEM_IUPAC_NAME>
1-[4-[[[6-amino-5-(4-phenoxyphenyl)pyrimidin-4-yl]amino]methyl]piperidin-1-yl]prop-2-en-1-one

> <PUBCHEM_IUPAC_SYSTEMATIC_NAME>
1-[4-[[[6-azanyl-5-(4-phenoxyphenyl)pyrimidin-4-yl]amino]methyl]piperidin-1-yl]prop-2-en-1-one

> <PUBCHEM_IUPAC_TRADITIONAL_NAME>
1-[4-[[[6-amino-5-(4-phenoxyphenyl)pyrimidin-4-yl]amino]methyl]piperidino]prop-2-en-1-one

> <PUBCHEM_IUPAC_INCHI>
InChI=1S/C25H27N5O2/c1-2-22(31)30-14-12-18(13-15-30)16-27-25-23(24(26)28-17-29-25)19-8-10-21(11-9-19)32-20-6-4-3-5-7-20/h2-11,17-18H,1,12-16H2,(H3,26,27,28,29)

> <PUBCHEM_IUPAC_INCHIKEY>
QUIWHXQETADMGN-UHFFFAOYSA-N

> <PUBCHEM_XLOGP3_AA>
4.2

> <PUBCHEM_EXACT_MASS>
429.21647512

> <PUBCHEM_MOLECULAR_FORMULA>
C25H27N5O2

> <PUBCHEM_MOLECULAR_WEIGHT>
429.5

> <PUBCHEM_OPENEYE_CAN_SMILES>
C=CC(=O)N1CCC(CC1)CNC2=NC=NC(=C2C3=CC=C(C=C3)OC4=CC=CC=C4)N

> <PUBCHEM_OPENEYE_ISO_SMILES>
C=CC(=O)N1CCC(CC1)CNC2=NC=NC(=C2C3=CC=C(C=C3)OC4=CC=CC=C4)N

> <PUBCHEM_CACTVS_TPSA>
93.4

> <PUBCHEM_MONOISOTOPIC_WEIGHT>
429.21647512

> <PUBCHEM_TOTAL_CHARGE>
0

> <PUBCHEM_HEAVY_ATOM_COUNT>
32

> <PUBCHEM_ATOM_DEF_STEREO_COUNT>
0

> <PUBCHEM_ATOM_UDEF_STEREO_COUNT>
0

> <PUBCHEM_BOND_DEF_STEREO_COUNT>
0

> <PUBCHEM_BOND_UDEF_STEREO_COUNT>
0

> <PUBCHEM_ISOTOPIC_ATOM_COUNT>
0

> <PUBCHEM_COMPONENT_COUNT>
1

> <PUBCHEM_CACTVS_TAUTO_COUNT>
-1

> <PUBCHEM_COORDINATE_TYPE>
1
5
255

> <PUBCHEM_BONDANNOTATIONS>
15  17  8
17  19  8
18  22  8
18  23  8
22  24  8
23  25  8
24  26  8
25  26  8
27  28  8
27  29  8
28  30  8
29  31  8
30  32  8
31  32  8
5  15  8
5  21  8
6  19  8
6  21  8

$$$$
3896
  -OEChem-11282412102D

 33 34  0     0  0  0  0  0  0999 V2000
    6.0010   -3.2500    0.0000 O   0  0  0  0  0  0  0  0  0  0  0  0
    2.5369    1.7500    0.0000 O   0  0  0  0  0  0  0  0  0  0  0  0
    9.4651   -1.2500    0.0000 O   0  0  0  0  0  0  0  0  0  0  0  0
    5.1350    3.2500    0.0000 O   0  0  0  0  0  0  0  0  0  0  0  0
    3.4030    3.2500    0.0000 O   0  0  0  0  0  0  0  0  0  0  0  0
    6.0010   -0.2500    0.0000 N   0  0  0  0  0  0  0  0  0  0  0  0
    6.0010   -1.2500    0.0000 C   0  0  0  0  0  0  0  0  0  0  0  0
    6.8671   -1.7500    0.0000 C   0  0  0  0  0  0  0  0  0  0  0  0
    5.1350    0.2500    0.0000 C   0  0  0  0  0  0  0  0  0  0  0  0
    6.8671   -2.7500    0.0000 C   0  0  0  0  0  0  0  0  0  0  0  0
    7.7331   -1.2500    0.0000 C   0  0  0  0  0  0  0  0  0  0  0  0
    5.1350    1.2500    0.0000 C   0  0  0  0  0  0  0  0  0  0  0  0
    4.2690   -0.2500    0.0000 C   0  0  0  0  0  0  0  0  0  0  0  0
    4.2690    1.7500    0.0000 C   0  0  0  0  0  0  0  0  0  0  0  0
    8.5991   -1.7500    0.0000 C   0  0  0  0  0  0  0  0  0  0  0  0
    3.4030    1.2500    0.0000 C   0  0  0  0  0  0  0  0  0  0  0  0
    7.7331   -3.2500    0.0000 C   0  0  0  0  0  0  0  0  0  0  0  0
    3.4030    0.2500    0.0000 C   0  0  0  0  0  0  0  0  0  0  0  0
    8.5991   -2.7500    0.0000 C   0  0  0  0  0  0  0  0  0  0  0  0
    4.2690    2.7500    0.0000 C   0  0  0  0  0  0  0  0  0  0  0  0
    5.3905   -1.1423    0.0000 H   0  0  0  0  0  0  0  0  0  0  0  0
    5.7890   -1.8326    0.0000 H   0  0  0  0  0  0  0  0  0  0  0  0
    6.5380    0.0600    0.0000 H   0  0  0  0  0  0  0  0  0  0  0  0
    7.7331   -0.6300    0.0000 H   0  0  0  0  0  0  0  0  0  0  0  0
    5.6720    1.5600    0.0000 H   0  0  0  0  0  0  0  0  0  0  0  0
    4.2690   -0.8700    0.0000 H   0  0  0  0  0  0  0  0  0  0  0  0
    2.8660   -0.0600    0.0000 H   0  0  0  0  0  0  0  0  0  0  0  0
    7.7331   -3.8700    0.0000 H   0  0  0  0  0  0  0  0  0  0  0  0
    9.1360   -3.0600    0.0000 H   0  0  0  0  0  0  0  0  0  0  0  0
    6.0010   -3.8700    0.0000 H   0  0  0  0  0  0  0  0  0  0  0  0
    2.0000    1.4400    0.0000 H   0  0  0  0  0  0  0  0  0  0  0  0
   10.0021   -1.5600    0.0000 H   0  0  0  0  0  0  0  0  0  0  0  0
    5.1350    3.8700    0.0000 H   0  0  0  0  0  0  0  0  0  0  0  0
  1 10  1  0  0  0  0
  1 30  1  0  0  0  0
  2 16  1  0  0  0  0
  2 31  1  0  0  0  0
  3 15  1  0  0  0  0
  3 32  1  0  0  0  0
  4 20  1  0  0  0  0
  4 33  1  0  0  0  0
  5 20  2  0  0  0  0
  6  7  1  0  0  0  0
  6  9  1  0  0  0  0
  6 23  1  0  0  0  0
  7  8  1  0  0  0  0
  7 21  1  0  0  0  0
  7 22  1  0  0  0  0
  8 10  2  0  0  0  0
  8 11  1  0  0  0  0
  9 12  2  0  0  0  0
  9 13  1  0  0  0  0
 10 17  1  0  0  0  0
 11 15  2  0  0  0  0
 11 24  1  0  0  0  0
 12 14  1  0  0  0  0
 12 25  1  0  0  0  0
 13 18  2  0  0  0  0
 13 26  1  0  0  0  0
 14 16  2  0  0  0  0
 14 20  1  0  0  0  0
 15 19  1  0  0  0  0
 16 18  1  0  0  0  0
 17 19  2  0  0  0  0
 17 28  1  0  0  0  0
 18 27  1  0  0  0  0
 19 29  1  0  0  0  0
M  END
> <PUBCHEM_COMPOUND_CID>
3896

> <PUBCHEM_COMPOUND_CANONICALIZED>
1

> <PUBCHEM_CACTVS_COMPLEXITY>
338

> <PUBCHEM_CACTVS_HBOND_ACCEPTOR>
6

> <PUBCHEM_CACTVS_HBOND_DONOR>
5

> <PUBCHEM_CACTVS_ROTATABLE_BOND>
4

> <PUBCHEM_CACTVS_SUBSKEYS>
AAADccByOAAAAAAAAAAAAAAAAAAAAAAAAAAwYAAAAAAAAAABQAAAHgAQCAAADAzBmAQwzoLAAgCIAiTSSACCAAAlIgAIiIEObMgIJzbClZOEcUhn8BHI2Yf8yDCOAUABQAAIAAACgAKAABAAAAAAAAAAAA==

> <PUBCHEM_IUPAC_OPENEYE_NAME>
5-[(2,5-dihydroxyphenyl)methylamino]-2-hydroxy-benzoic acid

> <PUBCHEM_IUPAC_CAS_NAME>
5-[(2,5-dihydroxyphenyl)methylamino]-2-hydroxybenzoic acid

> <PUBCHEM_IUPAC_NAME_MARKUP>
5-[(2,5-dihydroxyphenyl)methylamino]-2-hydroxybenzoic acid

> <PUBCHEM_IUPAC_NAME>
5-[(2,5-dihydroxyphenyl)methylamino]-2-hydroxybenzoic acid

> <PUBCHEM_IUPAC_SYSTEMATIC_NAME>
5-[[2,5-bis(oxidanyl)phenyl]methylamino]-2-oxidanyl-benzoic acid

> <PUBCHEM_IUPAC_TRADITIONAL_NAME>
5-[(2,5-dihydroxybenzyl)amino]-2-hydroxy-benzoic acid

> <PUBCHEM_IUPAC_INCHI>
InChI=1S/C14H13NO5/c16-10-2-4-12(17)8(5-10)7-15-9-1-3-13(18)11(6-9)14(19)20/h1-6,15-18H,7H2,(H,19,20)

> <PUBCHEM_IUPAC_INCHIKEY>
LULATDWLDJOKCX-UHFFFAOYSA-N

> <PUBCHEM_XLOGP3_AA>
2.4

> <PUBCHEM_EXACT_MASS>
275.07937252

> <PUBCHEM_MOLECULAR_FORMULA>
C14H13NO5

> <PUBCHEM_MOLECULAR_WEIGHT>
275.26

> <PUBCHEM_OPENEYE_CAN_SMILES>
C1=CC(=C(C=C1NCC2=C(C=CC(=C2)O)O)C(=O)O)O

> <PUBCHEM_OPENEYE_ISO_SMILES>
C1=CC(=C(C=C1NCC2=C(C=CC(=C2)O)O)C(=O)O)O

> <PUBCHEM_CACTVS_TPSA>
110

> <PUBCHEM_MONOISOTOPIC_WEIGHT>
275.07937252

> <PUBCHEM_TOTAL_CHARGE>
0

> <PUBCHEM_HEAVY_ATOM_COUNT>
20

> <PUBCHEM_ATOM_DEF_STEREO_COUNT>
0

> <PUBCHEM_ATOM_UDEF_STEREO_COUNT>
0

> <PUBCHEM_BOND_DEF_STEREO_COUNT>
0

> <PUBCHEM_BOND_UDEF_STEREO_COUNT>
0

> <PUBCHEM_ISOTOPIC_ATOM_COUNT>
0

> <PUBCHEM_COMPONENT_COUNT>
1

> <PUBCHEM_CACTVS_TAUTO_COUNT>
-1

> <PUBCHEM_COORDINATE_TYPE>
1
5
255

> <PUBCHEM_BONDANNOTATIONS>
10  17  8
11  15  8
12  14  8
13  18  8
14  16  8
15  19  8
16  18  8
17  19  8
8  10  8
8  11  8
9  12  8
9  13  8

$$$$
9811611
  -OEChem-11282412102D

 56 58  0     0  0  0  0  0  0999 V2000
    3.7320   -7.7691    0.0000 Br  0  0  0  0  0  0  0  0  0  0  0  0
    4.0981   -0.7303    0.0000 S   0  0  0  0  0  0  0  0  0  0  0  0
    5.4641   -4.7691    0.0000 F   0  0  0  0  0  0  0  0  0  0  0  0
    2.0000   -4.7691    0.0000 F   0  0  0  0  0  0  0  0  0  0  0  0
    4.2846    1.0968    0.0000 O   0  0  0  0  0  0  0  0  0  0  0  0
    4.5981   -3.2691    0.0000 O   0  0  0  0  0  0  0  0  0  0  0  0
    6.5661   -2.9685    0.0000 O   0  0  0  0  0  0  0  0  0  0  0  0
    5.8223    6.1600    0.0000 N   0  0  0  0  0  0  0  0  0  0  0  0
    5.8669    1.8013    0.0000 N   0  0  0  0  0  0  0  0  0  0  0  0
    5.6859    0.0787    0.0000 N   0  0  0  0  0  0  0  0  0  0  0  0
    3.7891   -1.6814    0.0000 N   0  0  0  0  0  0  0  0  0  0  0  0
    7.1013   -1.3212    0.0000 N   0  0  0  0  0  0  0  0  0  0  0  0
    6.3223    7.0260    0.0000 C   0  0  0  0  0  0  0  0  0  0  0  0
    4.8441    6.3679    0.0000 C   0  0  0  0  0  0  0  0  0  0  0  0
    5.6531    7.7691    0.0000 C   0  0  0  0  0  0  0  0  0  0  0  0
    4.7396    7.3624    0.0000 C   0  0  0  0  0  0  0  0  0  0  0  0
    6.2290    5.2464    0.0000 C   0  0  0  0  0  0  0  0  0  0  0  0
    5.6412    4.4374    0.0000 C   0  0  0  0  0  0  0  0  0  0  0  0
    6.0480    3.5238    0.0000 C   0  0  0  0  0  0  0  0  0  0  0  0
    5.4602    2.7148    0.0000 C   0  0  0  0  0  0  0  0  0  0  0  0
    5.2791    0.9923    0.0000 C   0  0  0  0  0  0  0  0  0  0  0  0
    5.0981   -0.7303    0.0000 C   0  0  0  0  0  0  0  0  0  0  0  0
    5.4071   -1.6814    0.0000 C   0  0  0  0  0  0  0  0  0  0  0  0
    4.5981   -2.2691    0.0000 C   0  0  0  0  0  0  0  0  0  0  0  0
    3.7320   -3.7691    0.0000 C   0  0  0  0  0  0  0  0  0  0  0  0
    3.7320   -4.7691    0.0000 C   0  0  0  0  0  0  0  0  0  0  0  0
    6.3582   -1.9904    0.0000 C   0  0  0  0  0  0  0  0  0  0  0  0
    4.5981   -5.2691    0.0000 C   0  0  0  0  0  0  0  0  0  0  0  0
    2.8660   -5.2691    0.0000 C   0  0  0  0  0  0  0  0  0  0  0  0
    4.5981   -6.2691    0.0000 C   0  0  0  0  0  0  0  0  0  0  0  0
    2.8660   -6.2691    0.0000 C   0  0  0  0  0  0  0  0  0  0  0  0
    3.7320   -6.7691    0.0000 C   0  0  0  0  0  0  0  0  0  0  0  0
    6.8239    6.6616    0.0000 H   0  0  0  0  0  0  0  0  0  0  0  0
    6.7371    7.4867    0.0000 H   0  0  0  0  0  0  0  0  0  0  0  0
    4.2241    6.3679    0.0000 H   0  0  0  0  0  0  0  0  0  0  0  0
    4.7793    5.7513    0.0000 H   0  0  0  0  0  0  0  0  0  0  0  0
    6.1547    8.1336    0.0000 H   0  0  0  0  0  0  0  0  0  0  0  0
    5.3431    8.3061    0.0000 H   0  0  0  0  0  0  0  0  0  0  0  0
    4.5480    7.9520    0.0000 H   0  0  0  0  0  0  0  0  0  0  0  0
    4.1331    7.2335    0.0000 H   0  0  0  0  0  0  0  0  0  0  0  0
    6.6597    4.8004    0.0000 H   0  0  0  0  0  0  0  0  0  0  0  0
    6.7430    5.5931    0.0000 H   0  0  0  0  0  0  0  0  0  0  0  0
    5.2105    4.8834    0.0000 H   0  0  0  0  0  0  0  0  0  0  0  0
    5.1272    4.0907    0.0000 H   0  0  0  0  0  0  0  0  0  0  0  0
    6.4786    3.0779    0.0000 H   0  0  0  0  0  0  0  0  0  0  0  0
    6.5620    3.8706    0.0000 H   0  0  0  0  0  0  0  0  0  0  0  0
    5.0295    3.1608    0.0000 H   0  0  0  0  0  0  0  0  0  0  0  0
    4.9462    2.3681    0.0000 H   0  0  0  0  0  0  0  0  0  0  0  0
    6.4835    1.7365    0.0000 H   0  0  0  0  0  0  0  0  0  0  0  0
    6.3025    0.0139    0.0000 H   0  0  0  0  0  0  0  0  0  0  0  0
    3.5200   -3.1865    0.0000 H   0  0  0  0  0  0  0  0  0  0  0  0
    3.1215   -3.8768    0.0000 H   0  0  0  0  0  0  0  0  0  0  0  0
    5.1350   -6.5791    0.0000 H   0  0  0  0  0  0  0  0  0  0  0  0
    2.3291   -6.5791    0.0000 H   0  0  0  0  0  0  0  0  0  0  0  0
    7.6910   -1.5128    0.0000 H   0  0  0  0  0  0  0  0  0  0  0  0
    6.9724   -0.7148    0.0000 H   0  0  0  0  0  0  0  0  0  0  0  0
  1 32  1  0  0  0  0
  2 11  1  0  0  0  0
  2 22  1  0  0  0  0
  3 28  1  0  0  0  0
  4 29  1  0  0  0  0
  5 21  2  0  0  0  0
  6 24  1  0  0  0  0
  6 25  1  0  0  0  0
  7 27  2  0  0  0  0
  8 13  1  0  0  0  0
  8 14  1  0  0  0  0
  8 17  1  0  0  0  0
  9 20  1  0  0  0  0
  9 21  1  0  0  0  0
  9 49  1  0  0  0  0
 10 21  1  0  0  0  0
 10 22  1  0  0  0  0
 10 50  1  0  0  0  0
 11 24  2  0  0  0  0
 12 27  1  0  0  0  0
 12 55  1  0  0  0  0
 12 56  1  0  0  0  0
 13 15  1  0  0  0  0
 13 33  1  0  0  0  0
 13 34  1  0  0  0  0
 14 16  1  0  0  0  0
 14 35  1  0  0  0  0
 14 36  1  0  0  0  0
 15 16  1  0  0  0  0
 15 37  1  0  0  0  0
 15 38  1  0  0  0  0
 16 39  1  0  0  0  0
 16 40  1  0  0  0  0
 17 18  1  0  0  0  0
 17 41  1  0  0  0  0
 17 42  1  0  0  0  0
 18 19  1  0  0  0  0
 18 43  1  0  0  0  0
 18 44  1  0  0  0  0
 19 20  1  0  0  0  0
 19 45  1  0  0  0  0
 19 46  1  0  0  0  0
 20 47  1  0  0  0  0
 20 48  1  0  0  0  0
 22 23  2  0  0  0  0
 23 24  1  0  0  0  0
 23 27  1  0  0  0  0
 25 26  1  0  0  0  0
 25 51  1  0  0  0  0
 25 52  1  0  0  0  0
 26 28  2  0  0  0  0
 26 29  1  0  0  0  0
 28 30  1  0  0  0  0
 29 31  2  0  0  0  0
 30 32  2  0  0  0  0
 30 53  1  0  0  0  0
 31 32  1  0  0  0  0
 31 54  1  0  0  0  0
M  END
> <PUBCHEM_COMPOUND_CID>
9811611

> <PUBCHEM_COMPOUND_CANONICALIZED>
1

> <PUBCHEM_CACTVS_COMPLEXITY>
622

> <PUBCHEM_CACTVS_HBOND_ACCEPTOR>
8

> <PUBCHEM_CACTVS_HBOND_DONOR>
3

> <PUBCHEM_CACTVS_ROTATABLE_BOND>
10

> <PUBCHEM_CACTVS_SUBSKEYS>
AAADceB7sYBAEAAAAAAAAAAAAAAAAWLAAAAwAAAAAAAAAAABwAAAHwRQQAABrADh2g4xhZPABACsAiFyUACDCBAlIA0AmLEsTPiMJi7E8ViOPOyu9gvIqneAwCAOAgAAAAAAAAAEAAAAAAAAAAAAAAAAAA==

> <PUBCHEM_IUPAC_OPENEYE_NAME>
3-[(4-bromo-2,6-difluoro-phenyl)methoxy]-5-(4-pyrrolidin-1-ylbutylcarbamoylamino)isothiazole-4-carboxamide

> <PUBCHEM_IUPAC_CAS_NAME>
3-[(4-bromo-2,6-difluorophenyl)methoxy]-5-[[oxo-[4-(1-pyrrolidinyl)butylamino]methyl]amino]-4-isothiazolecarboxamide

> <PUBCHEM_IUPAC_NAME_MARKUP>
3-[(4-bromo-2,6-difluorophenyl)methoxy]-5-(4-pyrrolidin-1-ylbutylcarbamoylamino)-1,2-thiazole-4-carboxamide

> <PUBCHEM_IUPAC_NAME>
3-[(4-bromo-2,6-difluorophenyl)methoxy]-5-(4-pyrrolidin-1-ylbutylcarbamoylamino)-1,2-thiazole-4-carboxamide

> <PUBCHEM_IUPAC_SYSTEMATIC_NAME>
3-[[4-bromanyl-2,6-bis(fluoranyl)phenyl]methoxy]-5-(4-pyrrolidin-1-ylbutylcarbamoylamino)-1,2-thiazole-4-carboxamide

> <PUBCHEM_IUPAC_TRADITIONAL_NAME>
3-(4-bromo-2,6-difluoro-benzyl)oxy-5-(4-pyrrolidinobutylcarbamoylamino)isothiazole-4-carboxamide

> <PUBCHEM_IUPAC_INCHI>
InChI=1S/C20H24BrF2N5O3S/c21-12-9-14(22)13(15(23)10-12)11-31-18-16(17(24)29)19(32-27-18)26-20(30)25-5-1-2-6-28-7-3-4-8-28/h9-10H,1-8,11H2,(H2,24,29)(H2,25,26,30)

> <PUBCHEM_IUPAC_INCHIKEY>
HXHAJRMTJXHJJZ-UHFFFAOYSA-N

> <PUBCHEM_XLOGP3_AA>
3.7

> <PUBCHEM_EXACT_MASS>
531.07513

> <PUBCHEM_MOLECULAR_FORMULA>
C20H24BrF2N5O3S

> <PUBCHEM_MOLECULAR_WEIGHT>
532.4

> <PUBCHEM_OPENEYE_CAN_SMILES>
C1CCN(C1)CCCCNC(=O)NC2=C(C(=NS2)OCC3=C(C=C(C=C3F)Br)F)C(=O)N

> <PUBCHEM_OPENEYE_ISO_SMILES>
C1CCN(C1)CCCCNC(=O)NC2=C(C(=NS2)OCC3=C(C=C(C=C3F)Br)F)C(=O)N

> <PUBCHEM_CACTVS_TPSA>
138

> <PUBCHEM_MONOISOTOPIC_WEIGHT>
531.07513

> <PUBCHEM_TOTAL_CHARGE>
0

> <PUBCHEM_HEAVY_ATOM_COUNT>
32

> <PUBCHEM_ATOM_DEF_STEREO_COUNT>
0

> <PUBCHEM_ATOM_UDEF_STEREO_COUNT>
0

> <PUBCHEM_BOND_DEF_STEREO_COUNT>
0

> <PUBCHEM_BOND_UDEF_STEREO_COUNT>
0

> <PUBCHEM_ISOTOPIC_ATOM_COUNT>
0

> <PUBCHEM_COMPONENT_COUNT>
1

> <PUBCHEM_CACTVS_TAUTO_COUNT>
-1

> <PUBCHEM_COORDINATE_TYPE>
1
5
255

> <PUBCHEM_BONDANNOTATIONS>
11  24  8
2  11  8
2  22  8
22  23  8
23  24  8
26  28  8
26  29  8
28  30  8
29  31  8
30  32  8
31  32  8

$$$$
16034840
  -OEChem-11282412102D

 62 64  0     0  0  0  0  0  0999 V2000
    6.0710    0.8660    0.0000 P   0  0  0  0  0  0  0  0  0  0  0  0
    0.0000    6.8877    0.0000 F   0  0  0  0  0  0  0  0  0  0  0  0
    6.5992   10.3493    0.0000 O   0  0  0  0  0  0  0  0  0  0  0  0
    5.1279    5.8877    0.0000 O   0  0  0  0  0  0  0  0  0  0  0  0
    6.9370    1.3660    0.0000 O   0  0  0  0  0  0  0  0  0  0  0  0
    5.2050    0.3660    0.0000 O   0  0  0  0  0  0  0  0  0  0  0  0
    5.5710    1.7320    0.0000 O   0  0  0  0  0  0  0  0  0  0  0  0
    6.5710    0.0000    0.0000 O   0  0  0  0  0  0  0  0  0  0  0  0
   10.2029   10.4625    0.0000 N   0  0  0  0  0  0  0  0  0  0  0  0
    7.8843    9.1881    0.0000 N   0  0  0  0  0  0  0  0  0  0  0  0
    5.5754    7.1787    0.0000 N   0  0  0  0  0  0  0  0  0  0  0  0
    3.5443    5.0829    0.0000 N   0  0  0  0  0  0  0  0  0  0  0  0
    9.9967   11.4410    0.0000 C   0  0  0  0  0  0  0  0  0  0  0  0
   11.1973   10.3562    0.0000 C   0  0  0  0  0  0  0  0  0  0  0  0
   10.8636   11.9395    0.0000 C   0  0  0  0  0  0  0  0  0  0  0  0
   11.6056   11.2691    0.0000 C   0  0  0  0  0  0  0  0  0  0  0  0
    9.5325    9.7205    0.0000 C   0  0  0  0  0  0  0  0  0  0  0  0
    8.5547    9.9301    0.0000 C   0  0  0  0  0  0  0  0  0  0  0  0
    6.2361    8.6557    0.0000 C   0  0  0  0  0  0  0  0  0  0  0  0
    6.9065    9.3977    0.0000 C   0  0  0  0  0  0  0  0  0  0  0  0
    5.2418    8.7620    0.0000 C   0  0  0  0  0  0  0  0  0  0  0  0
    4.8335    7.8491    0.0000 C   0  0  0  0  0  0  0  0  0  0  0  0
    6.4423    7.6772    0.0000 C   0  0  0  0  0  0  0  0  0  0  0  0
    3.8550    7.6429    0.0000 C   0  0  0  0  0  0  0  0  0  0  0  0
    3.5443    6.6924    0.0000 C   0  0  0  0  0  0  0  0  0  0  0  0
    4.7433    9.6289    0.0000 C   0  0  0  0  0  0  0  0  0  0  0  0
    2.5981    6.3877    0.0000 C   0  0  0  0  0  0  0  0  0  0  0  0
    7.3552    7.2689    0.0000 C   0  0  0  0  0  0  0  0  0  0  0  0
    2.5981    5.3877    0.0000 C   0  0  0  0  0  0  0  0  0  0  0  0
    4.1279    5.8877    0.0000 C   0  0  0  0  0  0  0  0  0  0  0  0
    1.7320    6.8877    0.0000 C   0  0  0  0  0  0  0  0  0  0  0  0
    1.7320    4.8877    0.0000 C   0  0  0  0  0  0  0  0  0  0  0  0
    0.8660    6.3877    0.0000 C   0  0  0  0  0  0  0  0  0  0  0  0
    0.8660    5.3877    0.0000 C   0  0  0  0  0  0  0  0  0  0  0  0
    9.7455   12.0078    0.0000 H   0  0  0  0  0  0  0  0  0  0  0  0
    9.4067   11.2504    0.0000 H   0  0  0  0  0  0  0  0  0  0  0  0
   11.0673    9.7500    0.0000 H   0  0  0  0  0  0  0  0  0  0  0  0
   11.7866   10.1636    0.0000 H   0  0  0  0  0  0  0  0  0  0  0  0
   11.3251   12.3536    0.0000 H   0  0  0  0  0  0  0  0  0  0  0  0
   10.5001   12.4417    0.0000 H   0  0  0  0  0  0  0  0  0  0  0  0
   12.1420   10.9581    0.0000 H   0  0  0  0  0  0  0  0  0  0  0  0
   11.9709   11.7700    0.0000 H   0  0  0  0  0  0  0  0  0  0  0  0
    9.2993    9.1460    0.0000 H   0  0  0  0  0  0  0  0  0  0  0  0
   10.0577    9.3910    0.0000 H   0  0  0  0  0  0  0  0  0  0  0  0
    8.7880   10.5046    0.0000 H   0  0  0  0  0  0  0  0  0  0  0  0
    8.0295   10.2596    0.0000 H   0  0  0  0  0  0  0  0  0  0  0  0
    8.0749    8.5981    0.0000 H   0  0  0  0  0  0  0  0  0  0  0  0
    5.5096    6.5622    0.0000 H   0  0  0  0  0  0  0  0  0  0  0  0
    3.4409    8.1044    0.0000 H   0  0  0  0  0  0  0  0  0  0  0  0
    5.2808    9.9379    0.0000 H   0  0  0  0  0  0  0  0  0  0  0  0
    4.4342   10.1663    0.0000 H   0  0  0  0  0  0  0  0  0  0  0  0
    4.2058    9.3198    0.0000 H   0  0  0  0  0  0  0  0  0  0  0  0
    7.1020    6.7030    0.0000 H   0  0  0  0  0  0  0  0  0  0  0  0
    7.9211    7.0158    0.0000 H   0  0  0  0  0  0  0  0  0  0  0  0
    7.6083    7.8349    0.0000 H   0  0  0  0  0  0  0  0  0  0  0  0
    3.7369    4.4936    0.0000 H   0  0  0  0  0  0  0  0  0  0  0  0
    1.7320    7.5077    0.0000 H   0  0  0  0  0  0  0  0  0  0  0  0
    1.7320    4.2677    0.0000 H   0  0  0  0  0  0  0  0  0  0  0  0
    0.3291    5.0777    0.0000 H   0  0  0  0  0  0  0  0  0  0  0  0
    7.4740    1.0560    0.0000 H   0  0  0  0  0  0  0  0  0  0  0  0
    4.6680    0.6760    0.0000 H   0  0  0  0  0  0  0  0  0  0  0  0
    5.8810    2.2690    0.0000 H   0  0  0  0  0  0  0  0  0  0  0  0
  1  5  1  0  0  0  0
  1  6  1  0  0  0  0
  1  7  1  0  0  0  0
  1  8  2  0  0  0  0
  2 33  1  0  0  0  0
  3 20  2  0  0  0  0
  4 30  2  0  0  0  0
  5 60  1  0  0  0  0
  6 61  1  0  0  0  0
  7 62  1  0  0  0  0
  9 13  1  0  0  0  0
  9 14  1  0  0  0  0
  9 17  1  0  0  0  0
 10 18  1  0  0  0  0
 10 20  1  0  0  0  0
 10 47  1  0  0  0  0
 11 22  1  0  0  0  0
 11 23  1  0  0  0  0
 11 48  1  0  0  0  0
 12 29  1  0  0  0  0
 12 30  1  0  0  0  0
 12 56  1  0  0  0  0
 13 15  1  0  0  0  0
 13 35  1  0  0  0  0
 13 36  1  0  0  0  0
 14 16  1  0  0  0  0
 14 37  1  0  0  0  0
 14 38  1  0  0  0  0
 15 16  1  0  0  0  0
 15 39  1  0  0  0  0
 15 40  1  0  0  0  0
 16 41  1  0  0  0  0
 16 42  1  0  0  0  0
 17 18  1  0  0  0  0
 17 43  1  0  0  0  0
 17 44  1  0  0  0  0
 18 45  1  0  0  0  0
 18 46  1  0  0  0  0
 19 20  1  0  0  0  0
 19 21  1  0  0  0  0
 19 23  2  0  0  0  0
 21 22  2  0  0  0  0
 21 26  1  0  0  0  0
 22 24  1  0  0  0  0
 23 28  1  0  0  0  0
 24 25  2  0  0  0  0
 24 49  1  0  0  0  0
 25 27  1  0  0  0  0
 25 30  1  0  0  0  0
 26 50  1  0  0  0  0
 26 51  1  0  0  0  0
 26 52  1  0  0  0  0
 27 29  2  0  0  0  0
 27 31  1  0  0  0  0
 28 53  1  0  0  0  0
 28 54  1  0  0  0  0
 28 55  1  0  0  0  0
 29 32  1  0  0  0  0
 31 33  2  0  0  0  0
 31 57  1  0  0  0  0
 32 34  2  0  0  0  0
 32 58  1  0  0  0  0
 33 34  1  0  0  0  0
 34 59  1  0  0  0  0
M  END
> <PUBCHEM_COMPOUND_CID>
16034840

> <PUBCHEM_COMPOUND_CANONICALIZED>
1

> <PUBCHEM_CACTVS_COMPLEXITY>
713

> <PUBCHEM_CACTVS_HBOND_ACCEPTOR>
8

> <PUBCHEM_CACTVS_HBOND_DONOR>
6

> <PUBCHEM_CACTVS_ROTATABLE_BOND>
5

> <PUBCHEM_CACTVS_SUBSKEYS>
AAADceB7uQIAAAAAAAAAAAAAAAAAAWLFgAAwAAAAAAAAAFgBwAAAHwAQCCAADAjBngwywJPJkBCoQyVyVICCgCAlAiAImaE4ZNgIYHrA1ZGUIYhglgDIyccciICOgAAAAAACAAAAAAAAAAQAAAAAAAAAAA==

> <PUBCHEM_IUPAC_OPENEYE_NAME>
5-[(Z)-(5-fluoro-2-oxo-indolin-3-ylidene)methyl]-2,4-dimethyl-N-(2-pyrrolidin-1-ylethyl)-1H-pyrrole-3-carboxamide;phosphoric acid

> <PUBCHEM_IUPAC_CAS_NAME>
5-[(Z)-(5-fluoro-2-oxo-1H-indol-3-ylidene)methyl]-2,4-dimethyl-N-[2-(1-pyrrolidinyl)ethyl]-1H-pyrrole-3-carboxamide;phosphoric acid

> <PUBCHEM_IUPAC_NAME_MARKUP>
5-[(<I>Z</I>)-(5-fluoro-2-oxo-1<I>H</I>-indol-3-ylidene)methyl]-2,4-dimethyl-<I>N</I>-(2-pyrrolidin-1-ylethyl)-1<I>H</I>-pyrrole-3-carboxamide;phosphoric acid

> <PUBCHEM_IUPAC_NAME>
5-[(Z)-(5-fluoro-2-oxo-1H-indol-3-ylidene)methyl]-2,4-dimethyl-N-(2-pyrrolidin-1-ylethyl)-1H-pyrrole-3-carboxamide;phosphoric acid

> <PUBCHEM_IUPAC_SYSTEMATIC_NAME>
5-[(Z)-(5-fluoranyl-2-oxidanylidene-1H-indol-3-ylidene)methyl]-2,4-dimethyl-N-(2-pyrrolidin-1-ylethyl)-1H-pyrrole-3-carboxamide;phosphoric acid

> <PUBCHEM_IUPAC_TRADITIONAL_NAME>
5-[(Z)-(5-fluoro-2-keto-indolin-3-ylidene)methyl]-2,4-dimethyl-N-(2-pyrrolidinoethyl)-1H-pyrrole-3-carboxamide;phosphoric acid

> <PUBCHEM_IUPAC_INCHI>
InChI=1S/C22H25FN4O2.H3O4P/c1-13-19(12-17-16-11-15(23)5-6-18(16)26-21(17)28)25-14(2)20(13)22(29)24-7-10-27-8-3-4-9-27;1-5(2,3)4/h5-6,11-12,25H,3-4,7-10H2,1-2H3,(H,24,29)(H,26,28);(H3,1,2,3,4)/b17-12-;

> <PUBCHEM_IUPAC_INCHIKEY>
AOORBROPMMRREB-HBPAQXCTSA-N

> <PUBCHEM_EXACT_MASS>
494.17304979

> <PUBCHEM_MOLECULAR_FORMULA>
C22H28FN4O6P

> <PUBCHEM_MOLECULAR_WEIGHT>
494.5

> <PUBCHEM_OPENEYE_CAN_SMILES>
CC1=C(NC(=C1C(=O)NCCN2CCCC2)C)C=C3C4=C(C=CC(=C4)F)NC3=O.OP(=O)(O)O

> <PUBCHEM_OPENEYE_ISO_SMILES>
CC1=C(NC(=C1C(=O)NCCN2CCCC2)C)/C=C\3/C4=C(C=CC(=C4)F)NC3=O.OP(=O)(O)O

> <PUBCHEM_CACTVS_TPSA>
155

> <PUBCHEM_MONOISOTOPIC_WEIGHT>
494.17304979

> <PUBCHEM_TOTAL_CHARGE>
0

> <PUBCHEM_HEAVY_ATOM_COUNT>
34

> <PUBCHEM_ATOM_DEF_STEREO_COUNT>
0

> <PUBCHEM_ATOM_UDEF_STEREO_COUNT>
0

> <PUBCHEM_BOND_DEF_STEREO_COUNT>
1

> <PUBCHEM_BOND_UDEF_STEREO_COUNT>
0

> <PUBCHEM_ISOTOPIC_ATOM_COUNT>
0

> <PUBCHEM_COMPONENT_COUNT>
2

> <PUBCHEM_CACTVS_TAUTO_COUNT>
-1

> <PUBCHEM_COORDINATE_TYPE>
1
5
255

> <PUBCHEM_BONDANNOTATIONS>
11  22  8
11  23  8
19  21  8
19  23  8
21  22  8
27  29  8
27  31  8
29  32  8
31  33  8
32  34  8
33  34  8

$$$$
18435899
  -OEChem-11282412102D

 78 83  0     0  0  0  0  0  0999 V2000
    5.8338    3.6200    0.0000 S   0  0  0  0  0  0  0  0  0  0  0  0
   11.2671   12.6965    0.0000 O   0  0  0  0  0  0  0  0  0  0  0  0
    8.7932   12.3120    0.0000 O   0  0  0  0  0  0  0  0  0  0  0  0
    5.8338    4.6200    0.0000 O   0  0  0  0  0  0  0  0  0  0  0  0
    6.8338    3.6200    0.0000 O   0  0  0  0  0  0  0  0  0  0  0  0
    4.8338    3.6200    0.0000 O   0  0  0  0  0  0  0  0  0  0  0  0
    1.4695   10.2537    0.0000 N   0  0  0  0  0  0  0  0  0  0  0  0
    1.5042    7.2539    0.0000 N   0  0  0  0  0  0  0  0  0  0  0  0
    3.2179   11.2883    0.0000 N   0  0  0  0  0  0  0  0  0  0  0  0
    4.9499   11.2883    0.0000 N   0  0  0  0  0  0  0  0  0  0  0  0
    6.0248   10.0903    0.0000 N   0  0  0  0  0  0  0  0  0  0  0  0
   10.0824   13.4688    0.0000 C   0  0  0  0  0  0  0  0  0  0  0  0
   11.0609   13.6750    0.0000 C   0  0  0  0  0  0  0  0  0  0  0  0
   10.2886   12.4903    0.0000 C   0  0  0  0  0  0  0  0  0  0  0  0
    9.1039   13.2626    0.0000 C   0  0  0  0  0  0  0  0  0  0  0  0
    9.8762   14.4473    0.0000 C   0  0  0  0  0  0  0  0  0  0  0  0
    1.4926    8.2538    0.0000 C   0  0  0  0  0  0  0  0  0  0  0  0
    0.6209    8.7438    0.0000 C   0  0  0  0  0  0  0  0  0  0  0  0
    2.3528    8.7638    0.0000 C   0  0  0  0  0  0  0  0  0  0  0  0
    0.6093    9.7437    0.0000 C   0  0  0  0  0  0  0  0  0  0  0  0
    2.3412    9.7637    0.0000 C   0  0  0  0  0  0  0  0  0  0  0  0
    1.4579   11.2536    0.0000 C   0  0  0  0  0  0  0  0  0  0  0  0
    2.3519   11.7883    0.0000 C   0  0  0  0  0  0  0  0  0  0  0  0
    7.8147   12.1058    0.0000 C   0  0  0  0  0  0  0  0  0  0  0  0
    0.5518   11.7675    0.0000 C   0  0  0  0  0  0  0  0  0  0  0  0
    2.3519   12.7883    0.0000 C   0  0  0  0  0  0  0  0  0  0  0  0
    0.5518   12.8091    0.0000 C   0  0  0  0  0  0  0  0  0  0  0  0
    4.0839   11.7883    0.0000 C   0  0  0  0  0  0  0  0  0  0  0  0
    7.5041   11.1553    0.0000 C   0  0  0  0  0  0  0  0  0  0  0  0
    5.8577   11.6934    0.0000 C   0  0  0  0  0  0  0  0  0  0  0  0
    1.4579   13.3229    0.0000 C   0  0  0  0  0  0  0  0  0  0  0  0
    7.1469   12.8501    0.0000 C   0  0  0  0  0  0  0  0  0  0  0  0
    6.5256   10.9491    0.0000 C   0  0  0  0  0  0  0  0  0  0  0  0
    3.2179   13.2883    0.0000 C   0  0  0  0  0  0  0  0  0  0  0  0
    6.1684   12.6439    0.0000 C   0  0  0  0  0  0  0  0  0  0  0  0
    4.0839   12.7883    0.0000 C   0  0  0  0  0  0  0  0  0  0  0  0
    5.0530   10.2995    0.0000 C   0  0  0  0  0  0  0  0  0  0  0  0
    5.8338    2.6200    0.0000 C   0  0  0  0  0  0  0  0  0  0  0  0
    4.9678    2.1200    0.0000 C   0  0  0  0  0  0  0  0  0  0  0  0
    6.6998    2.1200    0.0000 C   0  0  0  0  0  0  0  0  0  0  0  0
    4.9678    1.1200    0.0000 C   0  0  0  0  0  0  0  0  0  0  0  0
    6.6998    1.1200    0.0000 C   0  0  0  0  0  0  0  0  0  0  0  0
    5.8338    0.6200    0.0000 C   0  0  0  0  0  0  0  0  0  0  0  0
   11.6676   13.8029    0.0000 H   0  0  0  0  0  0  0  0  0  0  0  0
   10.9331   14.2817    0.0000 H   0  0  0  0  0  0  0  0  0  0  0  0
    9.6820   12.3624    0.0000 H   0  0  0  0  0  0  0  0  0  0  0  0
   10.4165   11.8836    0.0000 H   0  0  0  0  0  0  0  0  0  0  0  0
    9.0833   13.8822    0.0000 H   0  0  0  0  0  0  0  0  0  0  0  0
    8.4901   13.3499    0.0000 H   0  0  0  0  0  0  0  0  0  0  0  0
    0.9593    7.9376    0.0000 H   0  0  0  0  0  0  0  0  0  0  0  0
   10.4829   14.5751    0.0000 H   0  0  0  0  0  0  0  0  0  0  0  0
    9.7483   15.0540    0.0000 H   0  0  0  0  0  0  0  0  0  0  0  0
    9.2695   14.3194    0.0000 H   0  0  0  0  0  0  0  0  0  0  0  0
    0.0091    8.8444    0.0000 H   0  0  0  0  0  0  0  0  0  0  0  0
    0.4156    8.1587    0.0000 H   0  0  0  0  0  0  0  0  0  0  0  0
    2.5716    8.1837    0.0000 H   0  0  0  0  0  0  0  0  0  0  0  0
    2.9621    8.8785    0.0000 H   0  0  0  0  0  0  0  0  0  0  0  0
    0.3905   10.3238    0.0000 H   0  0  0  0  0  0  0  0  0  0  0  0
    0.0000    9.6290    0.0000 H   0  0  0  0  0  0  0  0  0  0  0  0
    2.9530    9.6631    0.0000 H   0  0  0  0  0  0  0  0  0  0  0  0
    2.5465   10.3487    0.0000 H   0  0  0  0  0  0  0  0  0  0  0  0
    0.9709    6.9377    0.0000 H   0  0  0  0  0  0  0  0  0  0  0  0
    2.0446    6.9501    0.0000 H   0  0  0  0  0  0  0  0  0  0  0  0
    0.0161   11.4554    0.0000 H   0  0  0  0  0  0  0  0  0  0  0  0
    0.0161   13.1212    0.0000 H   0  0  0  0  0  0  0  0  0  0  0  0
    7.9181   10.6938    0.0000 H   0  0  0  0  0  0  0  0  0  0  0  0
    1.4651   13.9429    0.0000 H   0  0  0  0  0  0  0  0  0  0  0  0
    7.3395   13.4394    0.0000 H   0  0  0  0  0  0  0  0  0  0  0  0
    3.2179   13.9083    0.0000 H   0  0  0  0  0  0  0  0  0  0  0  0
    5.7543   13.1054    0.0000 H   0  0  0  0  0  0  0  0  0  0  0  0
    4.6208   13.0983    0.0000 H   0  0  0  0  0  0  0  0  0  0  0  0
    4.5915    9.8855    0.0000 H   0  0  0  0  0  0  0  0  0  0  0  0
    4.4308    2.4300    0.0000 H   0  0  0  0  0  0  0  0  0  0  0  0
    7.2368    2.4300    0.0000 H   0  0  0  0  0  0  0  0  0  0  0  0
    4.4308    0.8100    0.0000 H   0  0  0  0  0  0  0  0  0  0  0  0
    7.2368    0.8100    0.0000 H   0  0  0  0  0  0  0  0  0  0  0  0
    5.8338    0.0000    0.0000 H   0  0  0  0  0  0  0  0  0  0  0  0
    6.3707    4.9300    0.0000 H   0  0  0  0  0  0  0  0  0  0  0  0
  1  4  1  0  0  0  0
  1  5  2  0  0  0  0
  1  6  2  0  0  0  0
  1 38  1  0  0  0  0
  2 13  1  0  0  0  0
  2 14  1  0  0  0  0
  3 15  1  0  0  0  0
  3 24  1  0  0  0  0
  4 78  1  0  0  0  0
  7 20  1  0  0  0  0
  7 21  1  0  0  0  0
  7 22  1  0  0  0  0
  8 17  1  0  0  0  0
  8 62  1  0  0  0  0
  8 63  1  0  0  0  0
  9 23  1  0  0  0  0
  9 28  2  0  0  0  0
 10 28  1  0  0  0  0
 10 30  1  0  0  0  0
 10 37  1  0  0  0  0
 11 33  1  0  0  0  0
 11 37  2  0  0  0  0
 12 13  1  0  0  0  0
 12 14  1  0  0  0  0
 12 15  1  0  0  0  0
 12 16  1  0  0  0  0
 13 44  1  0  0  0  0
 13 45  1  0  0  0  0
 14 46  1  0  0  0  0
 14 47  1  0  0  0  0
 15 48  1  0  0  0  0
 15 49  1  0  0  0  0
 16 51  1  0  0  0  0
 16 52  1  0  0  0  0
 16 53  1  0  0  0  0
 17 18  1  0  0  0  0
 17 19  1  0  0  0  0
 17 50  1  0  0  0  0
 18 20  1  0  0  0  0
 18 54  1  0  0  0  0
 18 55  1  0  0  0  0
 19 21  1  0  0  0  0
 19 56  1  0  0  0  0
 19 57  1  0  0  0  0
 20 58  1  0  0  0  0
 20 59  1  0  0  0  0
 21 60  1  0  0  0  0
 21 61  1  0  0  0  0
 22 23  1  0  0  0  0
 22 25  2  0  0  0  0
 23 26  2  0  0  0  0
 24 29  2  0  0  0  0
 24 32  1  0  0  0  0
 25 27  1  0  0  0  0
 25 64  1  0  0  0  0
 26 31  1  0  0  0  0
 26 34  1  0  0  0  0
 27 31  2  0  0  0  0
 27 65  1  0  0  0  0
 28 36  1  0  0  0  0
 29 33  1  0  0  0  0
 29 66  1  0  0  0  0
 30 33  2  0  0  0  0
 30 35  1  0  0  0  0
 31 67  1  0  0  0  0
 32 35  2  0  0  0  0
 32 68  1  0  0  0  0
 34 36  2  0  0  0  0
 34 69  1  0  0  0  0
 35 70  1  0  0  0  0
 36 71  1  0  0  0  0
 37 72  1  0  0  0  0
 38 39  2  0  0  0  0
 38 40  1  0  0  0  0
 39 41  1  0  0  0  0
 39 73  1  0  0  0  0
 40 42  2  0  0  0  0
 40 74  1  0  0  0  0
 41 43  2  0  0  0  0
 41 75  1  0  0  0  0
 42 43  1  0  0  0  0
 42 76  1  0  0  0  0
 43 77  1  0  0  0  0
M  END
> <PUBCHEM_COMPOUND_CID>
18435899

> <PUBCHEM_COMPOUND_CANONICALIZED>
1

> <PUBCHEM_CACTVS_COMPLEXITY>
851

> <PUBCHEM_CACTVS_HBOND_ACCEPTOR>
9

> <PUBCHEM_CACTVS_HBOND_DONOR>
2

> <PUBCHEM_CACTVS_ROTATABLE_BOND>
6

> <PUBCHEM_CACTVS_SUBSKEYS>
AAADcfB/uABAAAAAAAAAAAAAAABIAWAAAAA8eMECAAAAAFix/gAAHgQQCAAADizh3gY39/dMFIKgAyZjZHDCiG0xMqAJ2Lg+fJiMbuLE+ZuWOCjv0BvI6Cew0IMOAEAAQgACACAAgACEAAQAQAAAAAAAAA==

> <PUBCHEM_IUPAC_OPENEYE_NAME>
benzenesulfonic acid;1-[2-[5-[(3-methyloxetan-3-yl)methoxy]benzimidazol-1-yl]-8-quinolyl]piperidin-4-amine

> <PUBCHEM_IUPAC_CAS_NAME>
benzenesulfonic acid;1-[2-[5-[(3-methyl-3-oxetanyl)methoxy]-1-benzimidazolyl]-8-quinolinyl]-4-piperidinamine

> <PUBCHEM_IUPAC_NAME_MARKUP>
benzenesulfonic acid;1-[2-[5-[(3-methyloxetan-3-yl)methoxy]benzimidazol-1-yl]quinolin-8-yl]piperidin-4-amine

> <PUBCHEM_IUPAC_NAME>
benzenesulfonic acid;1-[2-[5-[(3-methyloxetan-3-yl)methoxy]benzimidazol-1-yl]quinolin-8-yl]piperidin-4-amine

> <PUBCHEM_IUPAC_SYSTEMATIC_NAME>
benzenesulfonic acid;1-[2-[5-[(3-methyloxetan-3-yl)methoxy]benzimidazol-1-yl]quinolin-8-yl]piperidin-4-amine

> <PUBCHEM_IUPAC_TRADITIONAL_NAME>
besylic acid;[1-[2-[5-[(3-methyloxetan-3-yl)methoxy]benzimidazol-1-yl]-8-quinolyl]-4-piperidyl]amine

> <PUBCHEM_IUPAC_INCHI>
InChI=1S/C26H29N5O2.C6H6O3S/c1-26(14-32-15-26)16-33-20-6-7-22-21(13-20)28-17-31(22)24-8-5-18-3-2-4-23(25(18)29-24)30-11-9-19(27)10-12-30;7-10(8,9)6-4-2-1-3-5-6/h2-8,13,17,19H,9-12,14-16,27H2,1H3;1-5H,(H,7,8,9)

> <PUBCHEM_IUPAC_INCHIKEY>
ARQUTWAXTHJROR-UHFFFAOYSA-N

> <PUBCHEM_EXACT_MASS>
601.23589041

> <PUBCHEM_MOLECULAR_FORMULA>
C32H35N5O5S

> <PUBCHEM_MOLECULAR_WEIGHT>
601.7

> <PUBCHEM_OPENEYE_CAN_SMILES>
CC1(COC1)COC2=CC3=C(C=C2)N(C=N3)C4=NC5=C(C=CC=C5N6CCC(CC6)N)C=C4.C1=CC=C(C=C1)S(=O)(=O)O

> <PUBCHEM_OPENEYE_ISO_SMILES>
CC1(COC1)COC2=CC3=C(C=C2)N(C=N3)C4=NC5=C(C=CC=C5N6CCC(CC6)N)C=C4.C1=CC=C(C=C1)S(=O)(=O)O

> <PUBCHEM_CACTVS_TPSA>
141

> <PUBCHEM_MONOISOTOPIC_WEIGHT>
601.23589041

> <PUBCHEM_TOTAL_CHARGE>
0

> <PUBCHEM_HEAVY_ATOM_COUNT>
43

> <PUBCHEM_ATOM_DEF_STEREO_COUNT>
0

> <PUBCHEM_ATOM_UDEF_STEREO_COUNT>
0

> <PUBCHEM_BOND_DEF_STEREO_COUNT>
0

> <PUBCHEM_BOND_UDEF_STEREO_COUNT>
0

> <PUBCHEM_ISOTOPIC_ATOM_COUNT>
0

> <PUBCHEM_COMPONENT_COUNT>
2

> <PUBCHEM_CACTVS_TAUTO_COUNT>
-1

> <PUBCHEM_COORDINATE_TYPE>
1
5
255

> <PUBCHEM_BONDANNOTATIONS>
10  30  8
10  37  8
11  33  8
11  37  8
22  23  8
22  25  8
23  26  8
24  29  8
24  32  8
25  27  8
26  31  8
26  34  8
27  31  8
28  36  8
29  33  8
30  33  8
30  35  8
32  35  8
34  36  8
38  39  8
38  40  8
39  41  8
40  42  8
41  43  8
42  43  8
9  23  8
9  28  8

$$$$
42623544
  -OEChem-11282412102D

 52 55  0     0  0  0  0  0  0999 V2000
    5.3890    0.8660    0.0000 P   0  0  0  0  0  0  0  0  0  0  0  0
    0.0000   12.3864    0.0000 O   0  0  0  0  0  0  0  0  0  0  0  0
    6.2550    1.3660    0.0000 O   0  0  0  0  0  0  0  0  0  0  0  0
    4.5230    0.3660    0.0000 O   0  0  0  0  0  0  0  0  0  0  0  0
    4.8890    1.7320    0.0000 O   0  0  0  0  0  0  0  0  0  0  0  0
    5.8890    0.0000    0.0000 O   0  0  0  0  0  0  0  0  0  0  0  0
    4.9782    6.3992    0.0000 N   0  0  0  0  0  0  0  0  0  0  0  0
    1.5173   10.2190    0.0000 N   0  0  0  0  0  0  0  0  0  0  0  0
    3.7598    7.7549    0.0000 N   0  0  0  0  0  0  0  0  0  0  0  0
    4.8751    5.4105    0.0000 N   0  0  0  0  0  0  0  0  0  0  0  0
    2.4241    6.2663    0.0000 N   0  0  0  0  0  0  0  0  0  0  0  0
    3.9033    5.2013    0.0000 N   0  0  0  0  0  0  0  0  0  0  0  0
    2.4678   10.5296    0.0000 N   0  0  0  0  0  0  0  0  0  0  0  0
    9.3362    4.8646    0.0000 N   0  0  0  0  0  0  0  0  0  0  0  0
    5.8442    6.8992    0.0000 C   0  0  0  0  0  0  0  0  0  0  0  0
    6.7102    6.3992    0.0000 C   0  0  0  0  0  0  0  0  0  0  0  0
    4.0704    6.8044    0.0000 C   0  0  0  0  0  0  0  0  0  0  0  0
    7.5763    6.8992    0.0000 C   0  0  0  0  0  0  0  0  0  0  0  0
    8.4423    6.3992    0.0000 C   0  0  0  0  0  0  0  0  0  0  0  0
    2.4706    8.9116    0.0000 C   0  0  0  0  0  0  0  0  0  0  0  0
    2.7812    7.9611    0.0000 C   0  0  0  0  0  0  0  0  0  0  0  0
    6.7102    5.3992    0.0000 C   0  0  0  0  0  0  0  0  0  0  0  0
    3.4026    6.0601    0.0000 C   0  0  0  0  0  0  0  0  0  0  0  0
    8.4423    5.3992    0.0000 C   0  0  0  0  0  0  0  0  0  0  0  0
    1.5190    9.2190    0.0000 C   0  0  0  0  0  0  0  0  0  0  0  0
    0.7072   10.8054    0.0000 C   0  0  0  0  0  0  0  0  0  0  0  0
    7.5763    4.8992    0.0000 C   0  0  0  0  0  0  0  0  0  0  0  0
    3.0570    9.7216    0.0000 C   0  0  0  0  0  0  0  0  0  0  0  0
    2.1134    7.2168    0.0000 C   0  0  0  0  0  0  0  0  0  0  0  0
    9.3362    6.9339    0.0000 C   0  0  0  0  0  0  0  0  0  0  0  0
    0.8100   11.8001    0.0000 C   0  0  0  0  0  0  0  0  0  0  0  0
   10.2423    6.4200    0.0000 C   0  0  0  0  0  0  0  0  0  0  0  0
   10.2423    5.3784    0.0000 C   0  0  0  0  0  0  0  0  0  0  0  0
    6.2428    7.3742    0.0000 H   0  0  0  0  0  0  0  0  0  0  0  0
    5.4457    7.3742    0.0000 H   0  0  0  0  0  0  0  0  0  0  0  0
    7.5763    7.5192    0.0000 H   0  0  0  0  0  0  0  0  0  0  0  0
    6.1733    5.0892    0.0000 H   0  0  0  0  0  0  0  0  0  0  0  0
    1.0180    8.8537    0.0000 H   0  0  0  0  0  0  0  0  0  0  0  0
    0.1109   10.9752    0.0000 H   0  0  0  0  0  0  0  0  0  0  0  0
    0.4364   10.2476    0.0000 H   0  0  0  0  0  0  0  0  0  0  0  0
    7.5763    4.2792    0.0000 H   0  0  0  0  0  0  0  0  0  0  0  0
    3.6770    9.7227    0.0000 H   0  0  0  0  0  0  0  0  0  0  0  0
    1.5067    7.3446    0.0000 H   0  0  0  0  0  0  0  0  0  0  0  0
    9.3291    7.5538    0.0000 H   0  0  0  0  0  0  0  0  0  0  0  0
    1.4063   11.6302    0.0000 H   0  0  0  0  0  0  0  0  0  0  0  0
    1.0809   12.3578    0.0000 H   0  0  0  0  0  0  0  0  0  0  0  0
   10.7780    6.7321    0.0000 H   0  0  0  0  0  0  0  0  0  0  0  0
   10.7780    5.0664    0.0000 H   0  0  0  0  0  0  0  0  0  0  0  0
    0.0637   13.0032    0.0000 H   0  0  0  0  0  0  0  0  0  0  0  0
    6.7920    1.0560    0.0000 H   0  0  0  0  0  0  0  0  0  0  0  0
    3.9861    0.6760    0.0000 H   0  0  0  0  0  0  0  0  0  0  0  0
    5.1990    2.2690    0.0000 H   0  0  0  0  0  0  0  0  0  0  0  0
  1  3  1  0  0  0  0
  1  4  1  0  0  0  0
  1  5  1  0  0  0  0
  1  6  2  0  0  0  0
  2 31  1  0  0  0  0
  2 49  1  0  0  0  0
  3 50  1  0  0  0  0
  4 51  1  0  0  0  0
  5 52  1  0  0  0  0
  7 10  1  0  0  0  0
  7 15  1  0  0  0  0
  7 17  1  0  0  0  0
  8 13  1  0  0  0  0
  8 25  1  0  0  0  0
  8 26  1  0  0  0  0
  9 17  2  0  0  0  0
  9 21  1  0  0  0  0
 10 12  2  0  0  0  0
 11 23  2  0  0  0  0
 11 29  1  0  0  0  0
 12 23  1  0  0  0  0
 13 28  2  0  0  0  0
 14 24  1  0  0  0  0
 14 33  2  0  0  0  0
 15 16  1  0  0  0  0
 15 34  1  0  0  0  0
 15 35  1  0  0  0  0
 16 18  2  0  0  0  0
 16 22  1  0  0  0  0
 17 23  1  0  0  0  0
 18 19  1  0  0  0  0
 18 36  1  0  0  0  0
 19 24  2  0  0  0  0
 19 30  1  0  0  0  0
 20 21  1  0  0  0  0
 20 25  2  0  0  0  0
 20 28  1  0  0  0  0
 21 29  2  0  0  0  0
 22 27  2  0  0  0  0
 22 37  1  0  0  0  0
 24 27  1  0  0  0  0
 25 38  1  0  0  0  0
 26 31  1  0  0  0  0
 26 39  1  0  0  0  0
 26 40  1  0  0  0  0
 27 41  1  0  0  0  0
 28 42  1  0  0  0  0
 29 43  1  0  0  0  0
 30 32  2  0  0  0  0
 30 44  1  0  0  0  0
 31 45  1  0  0  0  0
 31 46  1  0  0  0  0
 32 33  1  0  0  0  0
 32 47  1  0  0  0  0
 33 48  1  0  0  0  0
M  END
> <PUBCHEM_COMPOUND_CID>
42623544

> <PUBCHEM_COMPOUND_CANONICALIZED>
1

> <PUBCHEM_CACTVS_COMPLEXITY>
574

> <PUBCHEM_CACTVS_HBOND_ACCEPTOR>
11

> <PUBCHEM_CACTVS_HBOND_DONOR>
4

> <PUBCHEM_CACTVS_ROTATABLE_BOND>
5

> <PUBCHEM_CACTVS_SUBSKEYS>
AAADceB7+AIAAAAAAAAAAAAAAAAAAWLAAAA8WIAAAAAAAFix/gAAHgAICCAADAjhnwY98P4IEhCiQzZnZICShC8xkqAd2CA4dJiKeOLA2dGUpAhoiALYyCcQgMAOCAACAAACAAAQAAQAAAQAAAAAAAAAAA==

> <PUBCHEM_IUPAC_OPENEYE_NAME>
phosphoric acid;2-[4-[3-(6-quinolylmethyl)triazolo[4,5-b]pyrazin-5-yl]pyrazol-1-yl]ethanol

> <PUBCHEM_IUPAC_CAS_NAME>
phosphoric acid;2-[4-[3-(6-quinolinylmethyl)-5-triazolo[4,5-b]pyrazinyl]-1-pyrazolyl]ethanol

> <PUBCHEM_IUPAC_NAME_MARKUP>
phosphoric acid;2-[4-[3-(quinolin-6-ylmethyl)triazolo[4,5-b]pyrazin-5-yl]pyrazol-1-yl]ethanol

> <PUBCHEM_IUPAC_NAME>
phosphoric acid;2-[4-[3-(quinolin-6-ylmethyl)triazolo[4,5-b]pyrazin-5-yl]pyrazol-1-yl]ethanol

> <PUBCHEM_IUPAC_SYSTEMATIC_NAME>
phosphoric acid;2-[4-[3-(quinolin-6-ylmethyl)-[1,2,3]triazolo[4,5-b]pyrazin-5-yl]pyrazol-1-yl]ethanol

> <PUBCHEM_IUPAC_TRADITIONAL_NAME>
phosphoric acid;2-[4-[3-(6-quinolylmethyl)triazolo[4,5-b]pyrazin-5-yl]pyrazol-1-yl]ethanol

> <PUBCHEM_IUPAC_INCHI>
InChI=1S/C19H16N8O.H3O4P/c28-7-6-26-12-15(9-22-26)17-10-21-18-19(23-17)27(25-24-18)11-13-3-4-16-14(8-13)2-1-5-20-16;1-5(2,3)4/h1-5,8-10,12,28H,6-7,11H2;(H3,1,2,3,4)

> <PUBCHEM_IUPAC_INCHIKEY>
TWWONGIWZWOGQN-UHFFFAOYSA-N

> <PUBCHEM_EXACT_MASS>
470.12160273

> <PUBCHEM_MOLECULAR_FORMULA>
C19H19N8O5P

> <PUBCHEM_MOLECULAR_WEIGHT>
470.4

> <PUBCHEM_OPENEYE_CAN_SMILES>
C1=CC2=C(C=CC(=C2)CN3C4=NC(=CN=C4N=N3)C5=CN(N=C5)CCO)N=C1.OP(=O)(O)O

> <PUBCHEM_OPENEYE_ISO_SMILES>
C1=CC2=C(C=CC(=C2)CN3C4=NC(=CN=C4N=N3)C5=CN(N=C5)CCO)N=C1.OP(=O)(O)O

> <PUBCHEM_CACTVS_TPSA>
185

> <PUBCHEM_MONOISOTOPIC_WEIGHT>
470.12160273

> <PUBCHEM_TOTAL_CHARGE>
0

> <PUBCHEM_HEAVY_ATOM_COUNT>
33

> <PUBCHEM_ATOM_DEF_STEREO_COUNT>
0

> <PUBCHEM_ATOM_UDEF_STEREO_COUNT>
0

> <PUBCHEM_BOND_DEF_STEREO_COUNT>
0

> <PUBCHEM_BOND_UDEF_STEREO_COUNT>
0

> <PUBCHEM_ISOTOPIC_ATOM_COUNT>
0

> <PUBCHEM_COMPONENT_COUNT>
2

> <PUBCHEM_CACTVS_TAUTO_COUNT>
-1

> <PUBCHEM_COORDINATE_TYPE>
1
5
255

> <PUBCHEM_BONDANNOTATIONS>
10  12  8
11  23  8
11  29  8
12  23  8
13  28  8
14  24  8
14  33  8
16  18  8
16  22  8
17  23  8
18  19  8
19  24  8
19  30  8
20  25  8
20  28  8
21  29  8
22  27  8
24  27  8
30  32  8
32  33  8
7  10  8
7  17  8
8  13  8
8  25  8
9  17  8
9  21  8

$$$$
59422203
  -OEChem-11282412102D

 47 49  0     1  0  0  0  0  0999 V2000
   10.3518    2.4204    0.0000 F   0  0  0  0  0  0  0  0  0  0  0  0
   11.1241    3.6051    0.0000 F   0  0  0  0  0  0  0  0  0  0  0  0
    9.9394    4.3774    0.0000 F   0  0  0  0  0  0  0  0  0  0  0  0
    7.2101    2.7802    0.0000 O   0  0  0  0  0  0  0  0  0  0  0  0
    7.2566    0.1349    0.0000 N   0  0  0  0  0  0  0  0  0  0  0  0
    8.8564    2.2421    0.0000 N   0  0  0  0  0  0  0  0  0  0  0  0
    5.9674   -1.0219    0.0000 N   0  0  0  0  0  0  0  0  0  0  0  0
    4.6783   -3.7881    0.0000 N   0  0  0  0  0  0  0  0  0  0  0  0
    4.3211   -0.4838    0.0000 N   0  0  0  0  0  0  0  0  0  0  0  0
    2.8660   -3.9833    0.0000 N   0  0  0  0  0  0  0  0  0  0  0  0
    7.5673    1.0854    0.0000 C   0  0  1  0  0  0  0  0  0  0  0  0
    8.5178    0.7747    0.0000 C   0  0  0  0  0  0  0  0  0  0  0  0
    6.6168    1.3961    0.0000 C   0  0  0  0  0  0  0  0  0  0  0  0
    7.8779    2.0359    0.0000 C   0  0  0  0  0  0  0  0  0  0  0  0
    8.7240   -0.2038    0.0000 C   0  0  0  0  0  0  0  0  0  0  0  0
    6.2781   -0.0713    0.0000 C   0  0  0  0  0  0  0  0  0  0  0  0
    9.1671    3.1927    0.0000 C   0  0  0  0  0  0  0  0  0  0  0  0
    4.6783   -2.1786    0.0000 C   0  0  0  0  0  0  0  0  0  0  0  0
    5.6103    0.6730    0.0000 C   0  0  0  0  0  0  0  0  0  0  0  0
    4.9889   -1.2281    0.0000 C   0  0  0  0  0  0  0  0  0  0  0  0
    3.7320   -2.4833    0.0000 C   0  0  0  0  0  0  0  0  0  0  0  0
    3.7320   -3.4833    0.0000 C   0  0  0  0  0  0  0  0  0  0  0  0
    5.2619   -2.9833    0.0000 C   0  0  0  0  0  0  0  0  0  0  0  0
   10.1456    3.3989    0.0000 C   0  0  0  0  0  0  0  0  0  0  0  0
    4.6318    0.4667    0.0000 C   0  0  0  0  0  0  0  0  0  0  0  0
    2.8660   -1.9833    0.0000 C   0  0  0  0  0  0  0  0  0  0  0  0
    2.0000   -2.4833    0.0000 C   0  0  0  0  0  0  0  0  0  0  0  0
    2.0000   -3.4833    0.0000 C   0  0  0  0  0  0  0  0  0  0  0  0
    9.1374    0.7953    0.0000 H   0  0  0  0  0  0  0  0  0  0  0  0
    8.6051    1.3886    0.0000 H   0  0  0  0  0  0  0  0  0  0  0  0
    6.8094    1.9854    0.0000 H   0  0  0  0  0  0  0  0  0  0  0  0
    6.0274    1.5887    0.0000 H   0  0  0  0  0  0  0  0  0  0  0  0
    6.4241    0.8067    0.0000 H   0  0  0  0  0  0  0  0  0  0  0  0
    7.6707   -0.3266    0.0000 H   0  0  0  0  0  0  0  0  0  0  0  0
    8.1173   -0.3316    0.0000 H   0  0  0  0  0  0  0  0  0  0  0  0
    8.8519   -0.8104    0.0000 H   0  0  0  0  0  0  0  0  0  0  0  0
    9.3307   -0.0759    0.0000 H   0  0  0  0  0  0  0  0  0  0  0  0
    9.2705    1.7807    0.0000 H   0  0  0  0  0  0  0  0  0  0  0  0
    9.1465    3.8123    0.0000 H   0  0  0  0  0  0  0  0  0  0  0  0
    8.5533    3.2800    0.0000 H   0  0  0  0  0  0  0  0  0  0  0  0
    5.8029    1.2623    0.0000 H   0  0  0  0  0  0  0  0  0  0  0  0
    5.8819   -2.9833    0.0000 H   0  0  0  0  0  0  0  0  0  0  0  0
    4.2177    0.9282    0.0000 H   0  0  0  0  0  0  0  0  0  0  0  0
    4.8709   -4.3774    0.0000 H   0  0  0  0  0  0  0  0  0  0  0  0
    2.8660   -1.3633    0.0000 H   0  0  0  0  0  0  0  0  0  0  0  0
    1.4631   -2.1733    0.0000 H   0  0  0  0  0  0  0  0  0  0  0  0
    1.4631   -3.7933    0.0000 H   0  0  0  0  0  0  0  0  0  0  0  0
  1 24  1  0  0  0  0
  2 24  1  0  0  0  0
  3 24  1  0  0  0  0
  4 14  2  0  0  0  0
 11  5  1  1  0  0  0
  5 16  1  0  0  0  0
  5 34  1  0  0  0  0
  6 14  1  0  0  0  0
  6 17  1  0  0  0  0
  6 38  1  0  0  0  0
  7 16  2  0  0  0  0
  7 20  1  0  0  0  0
  8 22  1  0  0  0  0
  8 23  1  0  0  0  0
  8 44  1  0  0  0  0
  9 20  2  0  0  0  0
  9 25  1  0  0  0  0
 10 22  1  0  0  0  0
 10 28  2  0  0  0  0
 11 12  1  0  0  0  0
 11 13  1  0  0  0  0
 11 14  1  0  0  0  0
 12 15  1  0  0  0  0
 12 29  1  0  0  0  0
 12 30  1  0  0  0  0
 13 31  1  0  0  0  0
 13 32  1  0  0  0  0
 13 33  1  0  0  0  0
 15 35  1  0  0  0  0
 15 36  1  0  0  0  0
 15 37  1  0  0  0  0
 16 19  1  0  0  0  0
 17 24  1  0  0  0  0
 17 39  1  0  0  0  0
 17 40  1  0  0  0  0
 18 20  1  0  0  0  0
 18 21  1  0  0  0  0
 18 23  2  0  0  0  0
 19 25  2  0  0  0  0
 19 41  1  0  0  0  0
 21 22  2  0  0  0  0
 21 26  1  0  0  0  0
 23 42  1  0  0  0  0
 25 43  1  0  0  0  0
 26 27  2  0  0  0  0
 26 45  1  0  0  0  0
 27 28  1  0  0  0  0
 27 46  1  0  0  0  0
 28 47  1  0  0  0  0
M  END
> <PUBCHEM_COMPOUND_CID>
59422203

> <PUBCHEM_COMPOUND_CANONICALIZED>
1

> <PUBCHEM_CACTVS_COMPLEXITY>
548

> <PUBCHEM_CACTVS_HBOND_ACCEPTOR>
8

> <PUBCHEM_CACTVS_HBOND_DONOR>
3

> <PUBCHEM_CACTVS_ROTATABLE_BOND>
6

> <PUBCHEM_CACTVS_SUBSKEYS>
AAADceB7oYAAAAAAAAAAAAAAAAAAAWAAAAAsWAAAAAAAAFgB/gAAHwAQAAAADIjBmxQ/sN7JkACoAjN3dACCgCmxAqAJ2aG4ZJiIaPLA2fGUJAholgLIyCcQAAAOgAAAAAAAAAAAAAAAAAAAAAAAAAAAAA==

> <PUBCHEM_IUPAC_OPENEYE_NAME>
(2R)-2-methyl-2-[[2-(1H-pyrrolo[2,3-b]pyridin-3-yl)pyrimidin-4-yl]amino]-N-(2,2,2-trifluoroethyl)butanamide

> <PUBCHEM_IUPAC_CAS_NAME>
(2R)-2-methyl-2-[[2-(1H-pyrrolo[2,3-b]pyridin-3-yl)-4-pyrimidinyl]amino]-N-(2,2,2-trifluoroethyl)butanamide

> <PUBCHEM_IUPAC_NAME_MARKUP>
(2<I>R</I>)-2-methyl-2-[[2-(1<I>H</I>-pyrrolo[2,3-b]pyridin-3-yl)pyrimidin-4-yl]amino]-<I>N</I>-(2,2,2-trifluoroethyl)butanamide

> <PUBCHEM_IUPAC_NAME>
(2R)-2-methyl-2-[[2-(1H-pyrrolo[2,3-b]pyridin-3-yl)pyrimidin-4-yl]amino]-N-(2,2,2-trifluoroethyl)butanamide

> <PUBCHEM_IUPAC_SYSTEMATIC_NAME>
(2R)-2-methyl-2-[[2-(1H-pyrrolo[2,3-b]pyridin-3-yl)pyrimidin-4-yl]amino]-N-[2,2,2-tris(fluoranyl)ethyl]butanamide

> <PUBCHEM_IUPAC_TRADITIONAL_NAME>
(2R)-2-methyl-2-[[2-(1H-pyrrolo[2,3-b]pyridin-3-yl)pyrimidin-4-yl]amino]-N-(2,2,2-trifluoroethyl)butyramide

> <PUBCHEM_IUPAC_INCHI>
InChI=1S/C18H19F3N6O/c1-3-17(2,16(28)25-10-18(19,20)21)27-13-6-8-23-15(26-13)12-9-24-14-11(12)5-4-7-22-14/h4-9H,3,10H2,1-2H3,(H,22,24)(H,25,28)(H,23,26,27)/t17-/m1/s1

> <PUBCHEM_IUPAC_INCHIKEY>
ASUGUQWIHMTFJL-QGZVFWFLSA-N

> <PUBCHEM_XLOGP3_AA>
3.1

> <PUBCHEM_EXACT_MASS>
392.15724374

> <PUBCHEM_MOLECULAR_FORMULA>
C18H19F3N6O

> <PUBCHEM_MOLECULAR_WEIGHT>
392.4

> <PUBCHEM_OPENEYE_CAN_SMILES>
CCC(C)(C(=O)NCC(F)(F)F)NC1=NC(=NC=C1)C2=CNC3=C2C=CC=N3

> <PUBCHEM_OPENEYE_ISO_SMILES>
CC[C@](C)(C(=O)NCC(F)(F)F)NC1=NC(=NC=C1)C2=CNC3=C2C=CC=N3

> <PUBCHEM_CACTVS_TPSA>
95.6

> <PUBCHEM_MONOISOTOPIC_WEIGHT>
392.15724374

> <PUBCHEM_TOTAL_CHARGE>
0

> <PUBCHEM_HEAVY_ATOM_COUNT>
28

> <PUBCHEM_ATOM_DEF_STEREO_COUNT>
1

> <PUBCHEM_ATOM_UDEF_STEREO_COUNT>
0

> <PUBCHEM_BOND_DEF_STEREO_COUNT>
0

> <PUBCHEM_BOND_UDEF_STEREO_COUNT>
0

> <PUBCHEM_ISOTOPIC_ATOM_COUNT>
0

> <PUBCHEM_COMPONENT_COUNT>
1

> <PUBCHEM_CACTVS_TAUTO_COUNT>
-1

> <PUBCHEM_COORDINATE_TYPE>
1
5
255

> <PUBCHEM_BONDANNOTATIONS>
10  22  8
10  28  8
16  19  8
18  21  8
18  23  8
19  25  8
21  22  8
21  26  8
26  27  8
27  28  8
11  5  5
7  16  8
7  20  8
8  22  8
8  23  8
9  20  8
9  25  8

$$$$
91663352
  -OEChem-11282412102D

 62 65  0     1  0  0  0  0  0999 V2000
    6.3301   -5.5000    0.0000 O   0  0  0  0  0  0  0  0  0  0  0  0
    8.0622   -6.5000    0.0000 O   0  0  0  0  0  0  0  0  0  0  0  0
    2.8660    3.5000    0.0000 O   0  0  0  0  0  0  0  0  0  0  0  0
    6.3301   -0.5000    0.0000 N   0  0  0  0  0  0  0  0  0  0  0  0
    4.5981    3.5000    0.0000 N   0  0  0  0  0  0  0  0  0  0  0  0
    7.1962   -2.0000    0.0000 N   0  0  0  0  0  0  0  0  0  0  0  0
    8.9282   -1.0000    0.0000 N   0  0  0  0  0  0  0  0  0  0  0  0
    4.5981    6.5000    0.0000 N   0  0  0  0  0  0  0  0  0  0  0  0
    6.3301    0.5000    0.0000 C   0  0  2  0  0  0  0  0  0  0  0  0
    5.4641    1.0000    0.0000 C   0  0  0  0  0  0  0  0  0  0  0  0
    7.1962    1.0000    0.0000 C   0  0  0  0  0  0  0  0  0  0  0  0
    5.4641    2.0000    0.0000 C   0  0  0  0  0  0  0  0  0  0  0  0
    4.5981    0.5000    0.0000 C   0  0  0  0  0  0  0  0  0  0  0  0
    4.5981    2.5000    0.0000 C   0  0  0  0  0  0  0  0  0  0  0  0
    7.1962   -1.0000    0.0000 C   0  0  0  0  0  0  0  0  0  0  0  0
    3.7320    1.0000    0.0000 C   0  0  0  0  0  0  0  0  0  0  0  0
    3.7320    2.0000    0.0000 C   0  0  0  0  0  0  0  0  0  0  0  0
    8.0622   -2.5000    0.0000 C   0  0  0  0  0  0  0  0  0  0  0  0
    8.0622   -3.5000    0.0000 C   0  0  0  0  0  0  0  0  0  0  0  0
    8.0622   -0.5000    0.0000 C   0  0  0  0  0  0  0  0  0  0  0  0
    3.7320    4.0000    0.0000 C   0  0  0  0  0  0  0  0  0  0  0  0
    8.9282   -2.0000    0.0000 C   0  0  0  0  0  0  0  0  0  0  0  0
    7.1962   -4.0000    0.0000 C   0  0  0  0  0  0  0  0  0  0  0  0
    8.9282   -4.0000    0.0000 C   0  0  0  0  0  0  0  0  0  0  0  0
    7.1962   -5.0000    0.0000 C   0  0  0  0  0  0  0  0  0  0  0  0
    3.7320    5.0000    0.0000 C   0  0  0  0  0  0  0  0  0  0  0  0
    8.0622   -5.5000    0.0000 C   0  0  0  0  0  0  0  0  0  0  0  0
    8.9282   -5.0000    0.0000 C   0  0  0  0  0  0  0  0  0  0  0  0
    2.8660    5.5000    0.0000 C   0  0  0  0  0  0  0  0  0  0  0  0
    2.8660    6.5000    0.0000 C   0  0  0  0  0  0  0  0  0  0  0  0
    4.5981    5.5000    0.0000 C   0  0  0  0  0  0  0  0  0  0  0  0
    3.7320    7.0000    0.0000 C   0  0  0  0  0  0  0  0  0  0  0  0
    2.0000    7.0000    0.0000 C   0  0  0  0  0  0  0  0  0  0  0  0
    5.4641   -5.0000    0.0000 C   0  0  0  0  0  0  0  0  0  0  0  0
    8.9282   -7.0000    0.0000 C   0  0  0  0  0  0  0  0  0  0  0  0
    6.8671    0.1900    0.0000 H   0  0  0  0  0  0  0  0  0  0  0  0
    5.7932   -0.8100    0.0000 H   0  0  0  0  0  0  0  0  0  0  0  0
    7.5062    0.4631    0.0000 H   0  0  0  0  0  0  0  0  0  0  0  0
    7.7331    1.3100    0.0000 H   0  0  0  0  0  0  0  0  0  0  0  0
    6.8862    1.5369    0.0000 H   0  0  0  0  0  0  0  0  0  0  0  0
    6.0010    2.3100    0.0000 H   0  0  0  0  0  0  0  0  0  0  0  0
    4.5981   -0.1200    0.0000 H   0  0  0  0  0  0  0  0  0  0  0  0
    3.1951    0.6900    0.0000 H   0  0  0  0  0  0  0  0  0  0  0  0
    3.1951    2.3100    0.0000 H   0  0  0  0  0  0  0  0  0  0  0  0
    5.1350    3.8100    0.0000 H   0  0  0  0  0  0  0  0  0  0  0  0
    8.0622    0.1200    0.0000 H   0  0  0  0  0  0  0  0  0  0  0  0
    9.4651   -2.3100    0.0000 H   0  0  0  0  0  0  0  0  0  0  0  0
    6.6592   -3.6900    0.0000 H   0  0  0  0  0  0  0  0  0  0  0  0
    9.4651   -3.6900    0.0000 H   0  0  0  0  0  0  0  0  0  0  0  0
    9.4651   -5.3100    0.0000 H   0  0  0  0  0  0  0  0  0  0  0  0
    2.3291    5.1900    0.0000 H   0  0  0  0  0  0  0  0  0  0  0  0
    5.1350    5.1900    0.0000 H   0  0  0  0  0  0  0  0  0  0  0  0
    3.7320    7.6200    0.0000 H   0  0  0  0  0  0  0  0  0  0  0  0
    2.3100    7.5369    0.0000 H   0  0  0  0  0  0  0  0  0  0  0  0
    1.4631    7.3100    0.0000 H   0  0  0  0  0  0  0  0  0  0  0  0
    1.6900    6.4631    0.0000 H   0  0  0  0  0  0  0  0  0  0  0  0
    5.7741   -4.4631    0.0000 H   0  0  0  0  0  0  0  0  0  0  0  0
    4.9272   -4.6900    0.0000 H   0  0  0  0  0  0  0  0  0  0  0  0
    5.1541   -5.5369    0.0000 H   0  0  0  0  0  0  0  0  0  0  0  0
    8.6182   -7.5369    0.0000 H   0  0  0  0  0  0  0  0  0  0  0  0
    9.4651   -7.3100    0.0000 H   0  0  0  0  0  0  0  0  0  0  0  0
    9.2382   -6.4631    0.0000 H   0  0  0  0  0  0  0  0  0  0  0  0
  1 25  1  0  0  0  0
  1 34  1  0  0  0  0
  2 27  1  0  0  0  0
  2 35  1  0  0  0  0
  3 21  2  0  0  0  0
  9  4  1  6  0  0  0
  4 15  1  0  0  0  0
  4 37  1  0  0  0  0
  5 14  1  0  0  0  0
  5 21  1  0  0  0  0
  5 45  1  0  0  0  0
  6 15  2  0  0  0  0
  6 18  1  0  0  0  0
  7 20  2  0  0  0  0
  7 22  1  0  0  0  0
  8 31  1  0  0  0  0
  8 32  2  0  0  0  0
  9 10  1  0  0  0  0
  9 11  1  0  0  0  0
  9 36  1  0  0  0  0
 10 12  2  0  0  0  0
 10 13  1  0  0  0  0
 11 38  1  0  0  0  0
 11 39  1  0  0  0  0
 11 40  1  0  0  0  0
 12 14  1  0  0  0  0
 12 41  1  0  0  0  0
 13 16  2  0  0  0  0
 13 42  1  0  0  0  0
 14 17  2  0  0  0  0
 15 20  1  0  0  0  0
 16 17  1  0  0  0  0
 16 43  1  0  0  0  0
 17 44  1  0  0  0  0
 18 19  1  0  0  0  0
 18 22  2  0  0  0  0
 19 23  2  0  0  0  0
 19 24  1  0  0  0  0
 20 46  1  0  0  0  0
 21 26  1  0  0  0  0
 22 47  1  0  0  0  0
 23 25  1  0  0  0  0
 23 48  1  0  0  0  0
 24 28  2  0  0  0  0
 24 49  1  0  0  0  0
 25 27  2  0  0  0  0
 26 29  1  0  0  0  0
 26 31  2  0  0  0  0
 27 28  1  0  0  0  0
 28 50  1  0  0  0  0
 29 30  2  0  0  0  0
 29 51  1  0  0  0  0
 30 32  1  0  0  0  0
 30 33  1  0  0  0  0
 31 52  1  0  0  0  0
 32 53  1  0  0  0  0
 33 54  1  0  0  0  0
 33 55  1  0  0  0  0
 33 56  1  0  0  0  0
 34 57  1  0  0  0  0
 34 58  1  0  0  0  0
 34 59  1  0  0  0  0
 35 60  1  0  0  0  0
 35 61  1  0  0  0  0
 35 62  1  0  0  0  0
M  END
> <PUBCHEM_COMPOUND_CID>
91663352

> <PUBCHEM_COMPOUND_CANONICALIZED>
1

> <PUBCHEM_CACTVS_COMPLEXITY>
667

> <PUBCHEM_CACTVS_HBOND_ACCEPTOR>
7

> <PUBCHEM_CACTVS_HBOND_DONOR>
2

> <PUBCHEM_CACTVS_ROTATABLE_BOND>
8

> <PUBCHEM_CACTVS_SUBSKEYS>
AAADceB7sAAAAAAAAAAAAAAAAAAAAAAAAAA8eIEAAAAAAAAB9AAAHgAQAAAADCzBngY/9pLIFACoAzd3dACCiC01MiAJ2KE+/NiNZvrE/ZuUMaps1BPK6ee40bMOIAABQAAAQABAAAKAAACAAAAAAAAAAA==

> <PUBCHEM_IUPAC_OPENEYE_NAME>
N-[3-[(1S)-1-[[6-(3,4-dimethoxyphenyl)pyrazin-2-yl]amino]ethyl]phenyl]-5-methyl-pyridine-3-carboxamide

> <PUBCHEM_IUPAC_CAS_NAME>
N-[3-[(1S)-1-[[6-(3,4-dimethoxyphenyl)-2-pyrazinyl]amino]ethyl]phenyl]-5-methyl-3-pyridinecarboxamide

> <PUBCHEM_IUPAC_NAME_MARKUP>
<I>N</I>-[3-[(1<I>S</I>)-1-[[6-(3,4-dimethoxyphenyl)pyrazin-2-yl]amino]ethyl]phenyl]-5-methylpyridine-3-carboxamide

> <PUBCHEM_IUPAC_NAME>
N-[3-[(1S)-1-[[6-(3,4-dimethoxyphenyl)pyrazin-2-yl]amino]ethyl]phenyl]-5-methylpyridine-3-carboxamide

> <PUBCHEM_IUPAC_SYSTEMATIC_NAME>
N-[3-[(1S)-1-[[6-(3,4-dimethoxyphenyl)pyrazin-2-yl]amino]ethyl]phenyl]-5-methyl-pyridine-3-carboxamide

> <PUBCHEM_IUPAC_TRADITIONAL_NAME>
N-[3-[(1S)-1-[[6-(3,4-dimethoxyphenyl)pyrazin-2-yl]amino]ethyl]phenyl]-5-methyl-nicotinamide

> <PUBCHEM_IUPAC_INCHI>
InChI=1S/C27H27N5O3/c1-17-10-21(14-28-13-17)27(33)31-22-7-5-6-19(11-22)18(2)30-26-16-29-15-23(32-26)20-8-9-24(34-3)25(12-20)35-4/h5-16,18H,1-4H3,(H,30,32)(H,31,33)/t18-/m0/s1

> <PUBCHEM_IUPAC_INCHIKEY>
JHJNPOSPVGRIAN-SFHVURJKSA-N

> <PUBCHEM_XLOGP3_AA>
3.7

> <PUBCHEM_EXACT_MASS>
469.21138974

> <PUBCHEM_MOLECULAR_FORMULA>
C27H27N5O3

> <PUBCHEM_MOLECULAR_WEIGHT>
469.5

> <PUBCHEM_OPENEYE_CAN_SMILES>
CC1=CC(=CN=C1)C(=O)NC2=CC=CC(=C2)C(C)NC3=NC(=CN=C3)C4=CC(=C(C=C4)OC)OC

> <PUBCHEM_OPENEYE_ISO_SMILES>
CC1=CC(=CN=C1)C(=O)NC2=CC=CC(=C2)[C@H](C)NC3=NC(=CN=C3)C4=CC(=C(C=C4)OC)OC

> <PUBCHEM_CACTVS_TPSA>
98.3

> <PUBCHEM_MONOISOTOPIC_WEIGHT>
469.21138974

> <PUBCHEM_TOTAL_CHARGE>
0

> <PUBCHEM_HEAVY_ATOM_COUNT>
35

> <PUBCHEM_ATOM_DEF_STEREO_COUNT>
1

> <PUBCHEM_ATOM_UDEF_STEREO_COUNT>
0

> <PUBCHEM_BOND_DEF_STEREO_COUNT>
0

> <PUBCHEM_BOND_UDEF_STEREO_COUNT>
0

> <PUBCHEM_ISOTOPIC_ATOM_COUNT>
0

> <PUBCHEM_COMPONENT_COUNT>
1

> <PUBCHEM_CACTVS_TAUTO_COUNT>
-1

> <PUBCHEM_COORDINATE_TYPE>
1
5
255

> <PUBCHEM_BONDANNOTATIONS>
10  12  8
10  13  8
12  14  8
13  16  8
14  17  8
15  20  8
16  17  8
18  22  8
19  23  8
19  24  8
23  25  8
24  28  8
25  27  8
26  29  8
26  31  8
27  28  8
29  30  8
30  32  8
9  4  6
6  15  8
6  18  8
7  20  8
7  22  8
8  31  8
8  32  8

$$$$
127263217
  -OEChem-11282412102D

 74 72  0     1  0  0  0  0  0999 V2000
    0.5045    3.7254    0.0000 F   0  0  0  0  0  0  0  0  0  0  0  0
    0.0000    2.4043    0.0000 F   0  0  0  0  0  0  0  0  0  0  0  0
    1.3212    1.8998    0.0000 F   0  0  0  0  0  0  0  0  0  0  0  0
    3.6514    4.0376    0.0000 O   0  0  0  0  0  0  0  0  0  0  0  0
   10.7940    2.8100    0.0000 O   0  0  0  0  0  0  0  0  0  0  0  0
    9.9279    0.3100    0.0000 O   0  0  0  0  0  0  0  0  0  0  0  0
   12.5260    1.8100    0.0000 O   0  0  0  0  0  0  0  0  0  0  0  0
    8.1959    1.3100    0.0000 O   0  0  0  0  0  0  0  0  0  0  0  0
   11.6600    0.3100    0.0000 O   0  0  0  0  0  0  0  0  0  0  0  0
    9.0619    2.8100    0.0000 O   0  0  0  0  0  0  0  0  0  0  0  0
   10.3609    7.6145    0.0000 O   0  0  0  0  0  0  0  0  0  0  0  0
   10.3609    5.1176    0.0000 O   0  0  0  0  0  0  0  0  0  0  0  0
   10.3609   12.6085    0.0000 O   0  0  0  0  0  0  0  0  0  0  0  0
   10.3609   10.1115    0.0000 O   0  0  0  0  0  0  0  0  0  0  0  0
    2.9441    5.6186    0.0000 N   0  0  0  0  0  0  0  0  0  0  0  0
    4.0583    8.8140    0.0000 N   0  0  0  0  0  0  0  0  0  0  0  0
    5.6614    8.6470    0.0000 N   0  0  0  0  0  0  0  0  0  0  0  0
    1.9285    4.2156    0.0000 N   0  0  0  0  0  0  0  0  0  0  0  0
    4.0583   10.8140    0.0000 N   0  0  0  0  0  0  0  0  0  0  0  0
    2.2461   10.6188    0.0000 N   0  0  0  0  0  0  0  0  0  0  0  0
    2.6050    7.2007    0.0000 C   0  0  1  0  0  0  0  0  0  0  0  0
    3.5997    7.0979    0.0000 C   0  0  2  0  0  0  0  0  0  0  0  0
    2.1998    6.2865    0.0000 C   0  0  0  0  0  0  0  0  0  0  0  0
    3.8093    6.1201    0.0000 C   0  0  0  0  0  0  0  0  0  0  0  0
    2.1035    8.0659    0.0000 C   0  0  0  0  0  0  0  0  0  0  0  0
    4.2675    7.8422    0.0000 C   0  0  0  0  0  0  0  0  0  0  0  0
    1.1035    8.0642    0.0000 C   0  0  0  0  0  0  0  0  0  0  0  0
    2.8413    4.6239    0.0000 C   0  0  0  0  0  0  0  0  0  0  0  0
    5.2563    7.7392    0.0000 C   0  0  0  0  0  0  0  0  0  0  0  0
    4.9244    9.3140    0.0000 C   0  0  0  0  0  0  0  0  0  0  0  0
    3.1923    9.3140    0.0000 C   0  0  0  0  0  0  0  0  0  0  0  0
    3.1923   10.3140    0.0000 C   0  0  0  0  0  0  0  0  0  0  0  0
    4.9244   10.3140    0.0000 C   0  0  0  0  0  0  0  0  0  0  0  0
    2.2461    9.0093    0.0000 C   0  0  0  0  0  0  0  0  0  0  0  0
    1.8257    3.2209    0.0000 C   0  0  0  0  0  0  0  0  0  0  0  0
    1.6625    9.8140    0.0000 C   0  0  0  0  0  0  0  0  0  0  0  0
    0.9128    2.8126    0.0000 C   0  0  0  0  0  0  0  0  0  0  0  0
   10.7940    1.8100    0.0000 C   0  0  2  0  0  0  0  0  0  0  0  0
    9.9279    1.3100    0.0000 C   0  0  2  0  0  0  0  0  0  0  0  0
   11.6600    1.3100    0.0000 C   0  0  0  0  0  0  0  0  0  0  0  0
    9.0619    1.8100    0.0000 C   0  0  0  0  0  0  0  0  0  0  0  0
    2.9418    7.7213    0.0000 H   0  0  0  0  0  0  0  0  0  0  0  0
    3.2937    7.8909    0.0000 H   0  0  0  0  0  0  0  0  0  0  0  0
    1.6624    6.5956    0.0000 H   0  0  0  0  0  0  0  0  0  0  0  0
    1.8363    5.7843    0.0000 H   0  0  0  0  0  0  0  0  0  0  0  0
    4.0624    5.5542    0.0000 H   0  0  0  0  0  0  0  0  0  0  0  0
    4.3986    6.3128    0.0000 H   0  0  0  0  0  0  0  0  0  0  0  0
    2.6857    8.2790    0.0000 H   0  0  0  0  0  0  0  0  0  0  0  0
    1.9948    8.6763    0.0000 H   0  0  0  0  0  0  0  0  0  0  0  0
    1.1024    8.6842    0.0000 H   0  0  0  0  0  0  0  0  0  0  0  0
    0.4835    8.0631    0.0000 H   0  0  0  0  0  0  0  0  0  0  0  0
    1.1046    7.4442    0.0000 H   0  0  0  0  0  0  0  0  0  0  0  0
    5.5663    7.2022    0.0000 H   0  0  0  0  0  0  0  0  0  0  0  0
    1.4263    4.5792    0.0000 H   0  0  0  0  0  0  0  0  0  0  0  0
    5.4613   10.6240    0.0000 H   0  0  0  0  0  0  0  0  0  0  0  0
    2.0535    8.4200    0.0000 H   0  0  0  0  0  0  0  0  0  0  0  0
    1.9767    2.6196    0.0000 H   0  0  0  0  0  0  0  0  0  0  0  0
    2.4441    3.2652    0.0000 H   0  0  0  0  0  0  0  0  0  0  0  0
    2.0535   11.2081    0.0000 H   0  0  0  0  0  0  0  0  0  0  0  0
    1.0425    9.8140    0.0000 H   0  0  0  0  0  0  0  0  0  0  0  0
   10.2570    2.1200    0.0000 H   0  0  0  0  0  0  0  0  0  0  0  0
   10.4649    1.0000    0.0000 H   0  0  0  0  0  0  0  0  0  0  0  0
   11.3309    3.1200    0.0000 H   0  0  0  0  0  0  0  0  0  0  0  0
    9.3910    0.0000    0.0000 H   0  0  0  0  0  0  0  0  0  0  0  0
   13.0629    1.5000    0.0000 H   0  0  0  0  0  0  0  0  0  0  0  0
    7.6589    1.6200    0.0000 H   0  0  0  0  0  0  0  0  0  0  0  0
   10.8979    7.9245    0.0000 H   0  0  0  0  0  0  0  0  0  0  0  0
    9.8240    7.9245    0.0000 H   0  0  0  0  0  0  0  0  0  0  0  0
   10.8979    5.4276    0.0000 H   0  0  0  0  0  0  0  0  0  0  0  0
    9.8240    5.4276    0.0000 H   0  0  0  0  0  0  0  0  0  0  0  0
   10.8979   12.9185    0.0000 H   0  0  0  0  0  0  0  0  0  0  0  0
    9.8240   12.9185    0.0000 H   0  0  0  0  0  0  0  0  0  0  0  0
   10.8979   10.4215    0.0000 H   0  0  0  0  0  0  0  0  0  0  0  0
    9.8240   10.4215    0.0000 H   0  0  0  0  0  0  0  0  0  0  0  0
  1 37  1  0  0  0  0
  2 37  1  0  0  0  0
  3 37  1  0  0  0  0
  4 28  2  0  0  0  0
 38  5  1  1  0  0  0
  5 63  1  0  0  0  0
 39  6  1  1  0  0  0
  6 64  1  0  0  0  0
  7 40  1  0  0  0  0
  7 65  1  0  0  0  0
  8 41  1  0  0  0  0
  8 66  1  0  0  0  0
  9 40  2  0  0  0  0
 10 41  2  0  0  0  0
 11 67  1  0  0  0  0
 11 68  1  0  0  0  0
 12 69  1  0  0  0  0
 12 70  1  0  0  0  0
 13 71  1  0  0  0  0
 13 72  1  0  0  0  0
 14 73  1  0  0  0  0
 14 74  1  0  0  0  0
 15 23  1  0  0  0  0
 15 24  1  0  0  0  0
 15 28  1  0  0  0  0
 16 26  1  0  0  0  0
 16 30  1  0  0  0  0
 16 31  1  0  0  0  0
 17 29  1  0  0  0  0
 17 30  2  0  0  0  0
 18 28  1  0  0  0  0
 18 35  1  0  0  0  0
 18 54  1  0  0  0  0
 19 32  1  0  0  0  0
 19 33  2  0  0  0  0
 20 32  1  0  0  0  0
 20 36  1  0  0  0  0
 20 59  1  0  0  0  0
 21 22  1  0  0  0  0
 21 23  1  0  0  0  0
 21 25  1  1  0  0  0
 21 42  1  0  0  0  0
 22 24  1  0  0  0  0
 22 26  1  0  0  0  0
 22 43  1  6  0  0  0
 23 44  1  0  0  0  0
 23 45  1  0  0  0  0
 24 46  1  0  0  0  0
 24 47  1  0  0  0  0
 25 27  1  0  0  0  0
 25 48  1  0  0  0  0
 25 49  1  0  0  0  0
 26 29  2  0  0  0  0
 27 50  1  0  0  0  0
 27 51  1  0  0  0  0
 27 52  1  0  0  0  0
 29 53  1  0  0  0  0
 30 33  1  0  0  0  0
 31 32  2  0  0  0  0
 31 34  1  0  0  0  0
 33 55  1  0  0  0  0
 34 36  2  0  0  0  0
 34 56  1  0  0  0  0
 35 37  1  0  0  0  0
 35 57  1  0  0  0  0
 35 58  1  0  0  0  0
 36 60  1  0  0  0  0
 38 39  1  0  0  0  0
 38 40  1  0  0  0  0
 38 61  1  0  0  0  0
 39 41  1  0  0  0  0
 39 62  1  0  0  0  0
M  END
> <PUBCHEM_COMPOUND_CID>
127263217

> <PUBCHEM_COMPOUND_CANONICALIZED>
1

> <PUBCHEM_CACTVS_COMPLEXITY>
695

> <PUBCHEM_CACTVS_HBOND_ACCEPTOR>
16

> <PUBCHEM_CACTVS_HBOND_DONOR>
10

> <PUBCHEM_CACTVS_ROTATABLE_BOND>
6

> <PUBCHEM_CACTVS_SUBSKEYS>
AAADcfB7vYAAAAAAAAAAAAAAAAAAAWLFgAAsAAAAAAAAAFgB+AAAHwAQCAAADRzhlxY/+L/NmgCoATb3fAKCgC2xEqAJ2aF4dJiJeNZA2cGURAhNtgLBQCFTAAAOgAAAAAAAAAAAAAAAAAAAAAAAAAAAAA==

> <PUBCHEM_IUPAC_OPENEYE_NAME>
(2R,3R)-2,3-dihydroxybutanedioic acid;(3S,4R)-3-ethyl-4-(1,5,7,10-tetrazatricyclo[7.3.0.02,6]dodeca-2(6),3,7,9,11-pentaen-12-yl)-N-(2,2,2-trifluoroethyl)pyrrolidine-1-carboxamide;tetrahydrate

> <PUBCHEM_IUPAC_CAS_NAME>
(2R,3R)-2,3-dihydroxybutanedioic acid;(3S,4R)-3-ethyl-4-(1,5,7,10-tetrazatricyclo[7.3.0.02,6]dodeca-2(6),3,7,9,11-pentaen-12-yl)-N-(2,2,2-trifluoroethyl)-1-pyrrolidinecarboxamide;tetrahydrate

> <PUBCHEM_IUPAC_NAME_MARKUP>
(2<I>R</I>,3<I>R</I>)-2,3-dihydroxybutanedioic acid;(3<I>S</I>,4<I>R</I>)-3-ethyl-4-(1,5,7,10-tetrazatricyclo[7.3.0.0<SUP>2,6</SUP>]dodeca-2(6),3,7,9,11-pentaen-12-yl)-<I>N</I>-(2,2,2-trifluoroethyl)pyrrolidine-1-carboxamide;tetrahydrate

> <PUBCHEM_IUPAC_NAME>
(2R,3R)-2,3-dihydroxybutanedioic acid;(3S,4R)-3-ethyl-4-(1,5,7,10-tetrazatricyclo[7.3.0.02,6]dodeca-2(6),3,7,9,11-pentaen-12-yl)-N-(2,2,2-trifluoroethyl)pyrrolidine-1-carboxamide;tetrahydrate

> <PUBCHEM_IUPAC_SYSTEMATIC_NAME>
(2R,3R)-2,3-bis(oxidanyl)butanedioic acid;(3S,4R)-3-ethyl-4-(1,5,7,10-tetrazatricyclo[7.3.0.02,6]dodeca-2(6),3,7,9,11-pentaen-12-yl)-N-[2,2,2-tris(fluoranyl)ethyl]pyrrolidine-1-carboxamide;tetrahydrate

> <PUBCHEM_IUPAC_TRADITIONAL_NAME>
(2R,3R)-2,3-dihydroxysuccinic acid;(3S,4R)-3-ethyl-4-(1,5,7,10-tetrazatricyclo[7.3.0.02,6]dodeca-2(6),3,7,9,11-pentaen-12-yl)-N-(2,2,2-trifluoroethyl)pyrrolidine-1-carboxamide;tetrahydrate

> <PUBCHEM_IUPAC_INCHI>
InChI=1S/C17H19F3N6O.C4H6O6.4H2O/c1-2-10-7-25(16(27)24-9-17(18,19)20)8-11(10)13-5-22-14-6-23-15-12(26(13)14)3-4-21-15;5-1(3(7)8)2(6)4(9)10;;;;/h3-6,10-11,21H,2,7-9H2,1H3,(H,24,27);1-2,5-6H,(H,7,8)(H,9,10);4*1H2/t10-,11+;1-,2-;;;;/m11..../s1

> <PUBCHEM_IUPAC_INCHIKEY>
LATZVDXOTDYECD-ARKNDKGZSA-N

> <PUBCHEM_EXACT_MASS>
602.21594038

> <PUBCHEM_MOLECULAR_FORMULA>
C21H33F3N6O11

> <PUBCHEM_MOLECULAR_WEIGHT>
602.5

> <PUBCHEM_OPENEYE_CAN_SMILES>
CCC1CN(CC1C2=CN=C3N2C4=C(NC=C4)N=C3)C(=O)NCC(F)(F)F.C(C(C(=O)O)O)(C(=O)O)O.O.O.O.O

> <PUBCHEM_OPENEYE_ISO_SMILES>
CC[C@@H]1CN(C[C@@H]1C2=CN=C3N2C4=C(NC=C4)N=C3)C(=O)NCC(F)(F)F.[C@@H]([C@H](C(=O)O)O)(C(=O)O)O.O.O.O.O

> <PUBCHEM_CACTVS_TPSA>
197

> <PUBCHEM_MONOISOTOPIC_WEIGHT>
602.21594038

> <PUBCHEM_TOTAL_CHARGE>
0

> <PUBCHEM_HEAVY_ATOM_COUNT>
41

> <PUBCHEM_ATOM_DEF_STEREO_COUNT>
4

> <PUBCHEM_ATOM_UDEF_STEREO_COUNT>
0

> <PUBCHEM_BOND_DEF_STEREO_COUNT>
0

> <PUBCHEM_BOND_UDEF_STEREO_COUNT>
0

> <PUBCHEM_ISOTOPIC_ATOM_COUNT>
0

> <PUBCHEM_COMPONENT_COUNT>
6

> <PUBCHEM_CACTVS_TAUTO_COUNT>
-1

> <PUBCHEM_COORDINATE_TYPE>
1
5
255

> <PUBCHEM_BONDANNOTATIONS>
16  26  8
16  30  8
16  31  8
17  29  8
17  30  8
19  32  8
19  33  8
20  32  8
20  36  8
21  25  5
22  43  6
26  29  8
30  33  8
31  32  8
31  34  8
34  36  8
38  5  5
39  6  5

$$$$
133082362
  -OEChem-11282412102D

158165  0     0  0  0  0  0  0999 V2000
    7.7431   16.9205    0.0000 O   0  0  0  0  0  0  0  0  0  0  0  0
    7.7431    5.3567    0.0000 O   0  0  0  0  0  0  0  0  0  0  0  0
   20.5818   13.0638    0.0000 O   0  0  0  0  0  0  0  0  0  0  0  0
   24.9119   12.5638    0.0000 O   0  0  0  0  0  0  0  0  0  0  0  0
   10.5594    1.5000    0.0000 O   0  0  0  0  0  0  0  0  0  0  0  0
   14.8895    1.0000    0.0000 O   0  0  0  0  0  0  0  0  0  0  0  0
    0.5369   13.0638    0.0000 O   0  0  0  0  0  0  0  0  0  0  0  0
    4.8671   12.5638    0.0000 O   0  0  0  0  0  0  0  0  0  0  0  0
   21.4478   11.5638    0.0000 O   0  0  0  0  0  0  0  0  0  0  0  0
   24.0459   14.0638    0.0000 O   0  0  0  0  0  0  0  0  0  0  0  0
   11.4254    0.0000    0.0000 O   0  0  0  0  0  0  0  0  0  0  0  0
   14.0235    2.5000    0.0000 O   0  0  0  0  0  0  0  0  0  0  0  0
    1.4030   11.5638    0.0000 O   0  0  0  0  0  0  0  0  0  0  0  0
    4.0010   14.0638    0.0000 O   0  0  0  0  0  0  0  0  0  0  0  0
    9.8338   18.1276    0.0000 N   0  0  0  0  0  0  0  0  0  0  0  0
    9.8338    6.5638    0.0000 N   0  0  0  0  0  0  0  0  0  0  0  0
   11.5659   19.1276    0.0000 N   0  0  0  0  0  0  0  0  0  0  0  0
   11.5659    7.5638    0.0000 N   0  0  0  0  0  0  0  0  0  0  0  0
   15.0300   21.1276    0.0000 N   0  0  0  0  0  0  0  0  0  0  0  0
   15.0300    9.5638    0.0000 N   0  0  0  0  0  0  0  0  0  0  0  0
   14.1640   22.6276    0.0000 N   0  0  0  0  0  0  0  0  0  0  0  0
   14.1640   11.0638    0.0000 N   0  0  0  0  0  0  0  0  0  0  0  0
   15.8960   23.6276    0.0000 N   0  0  0  0  0  0  0  0  0  0  0  0
   15.8960   12.0638    0.0000 N   0  0  0  0  0  0  0  0  0  0  0  0
   16.8422   22.3229    0.0000 N   0  0  0  0  0  0  0  0  0  0  0  0
   16.8422   10.7591    0.0000 N   0  0  0  0  0  0  0  0  0  0  0  0
   12.4319   23.6276    0.0000 N   0  0  0  0  0  0  0  0  0  0  0  0
   12.4319   12.0638    0.0000 N   0  0  0  0  0  0  0  0  0  0  0  0
   12.4319   25.6276    0.0000 N   0  0  0  0  0  0  0  0  0  0  0  0
   12.4319   14.0638    0.0000 N   0  0  0  0  0  0  0  0  0  0  0  0
   10.6999   23.6276    0.0000 N   0  0  0  0  0  0  0  0  0  0  0  0
   10.6999   12.0638    0.0000 N   0  0  0  0  0  0  0  0  0  0  0  0
    8.9678   17.6276    0.0000 C   0  0  0  0  0  0  0  0  0  0  0  0
    8.9678    6.0638    0.0000 C   0  0  0  0  0  0  0  0  0  0  0  0
   10.6999   17.6276    0.0000 C   0  0  0  0  0  0  0  0  0  0  0  0
    9.8338   19.1276    0.0000 C   0  0  0  0  0  0  0  0  0  0  0  0
   10.6999    6.0638    0.0000 C   0  0  0  0  0  0  0  0  0  0  0  0
    9.8338    7.5638    0.0000 C   0  0  0  0  0  0  0  0  0  0  0  0
    8.7090   16.6617    0.0000 C   0  0  0  0  0  0  0  0  0  0  0  0
    8.0019   17.8865    0.0000 C   0  0  0  0  0  0  0  0  0  0  0  0
    8.7090    5.0979    0.0000 C   0  0  0  0  0  0  0  0  0  0  0  0
    8.0019    6.3226    0.0000 C   0  0  0  0  0  0  0  0  0  0  0  0
   11.5659   18.1276    0.0000 C   0  0  0  0  0  0  0  0  0  0  0  0
   10.6999   19.6276    0.0000 C   0  0  0  0  0  0  0  0  0  0  0  0
   11.5659    6.5638    0.0000 C   0  0  0  0  0  0  0  0  0  0  0  0
   10.6999    8.0638    0.0000 C   0  0  0  0  0  0  0  0  0  0  0  0
   12.4319   19.6276    0.0000 C   0  0  0  0  0  0  0  0  0  0  0  0
   12.4319    8.0638    0.0000 C   0  0  0  0  0  0  0  0  0  0  0  0
   12.4319   20.6276    0.0000 C   0  0  0  0  0  0  0  0  0  0  0  0
   12.4319    9.0638    0.0000 C   0  0  0  0  0  0  0  0  0  0  0  0
   13.2980   19.1276    0.0000 C   0  0  0  0  0  0  0  0  0  0  0  0
   13.2980    7.5638    0.0000 C   0  0  0  0  0  0  0  0  0  0  0  0
   13.2980   21.1276    0.0000 C   0  0  0  0  0  0  0  0  0  0  0  0
   13.2980    9.5638    0.0000 C   0  0  0  0  0  0  0  0  0  0  0  0
   14.1640   19.6276    0.0000 C   0  0  0  0  0  0  0  0  0  0  0  0
   14.1640    8.0638    0.0000 C   0  0  0  0  0  0  0  0  0  0  0  0
   14.1640   20.6276    0.0000 C   0  0  0  0  0  0  0  0  0  0  0  0
   14.1640    9.0638    0.0000 C   0  0  0  0  0  0  0  0  0  0  0  0
   15.0300   22.1276    0.0000 C   0  0  0  0  0  0  0  0  0  0  0  0
   15.0300   10.5638    0.0000 C   0  0  0  0  0  0  0  0  0  0  0  0
   15.8960   22.6276    0.0000 C   0  0  0  0  0  0  0  0  0  0  0  0
   15.8960   11.0638    0.0000 C   0  0  0  0  0  0  0  0  0  0  0  0
   14.1640   23.6276    0.0000 C   0  0  0  0  0  0  0  0  0  0  0  0
   14.1640   12.0638    0.0000 C   0  0  0  0  0  0  0  0  0  0  0  0
   15.0300   24.1276    0.0000 C   0  0  0  0  0  0  0  0  0  0  0  0
   15.0300   12.5638    0.0000 C   0  0  0  0  0  0  0  0  0  0  0  0
   16.8422   23.9324    0.0000 C   0  0  0  0  0  0  0  0  0  0  0  0
   16.8422   12.3686    0.0000 C   0  0  0  0  0  0  0  0  0  0  0  0
   17.4259   23.1276    0.0000 C   0  0  0  0  0  0  0  0  0  0  0  0
   17.4259   11.5638    0.0000 C   0  0  0  0  0  0  0  0  0  0  0  0
   13.2980   24.1276    0.0000 C   0  0  0  0  0  0  0  0  0  0  0  0
   13.2980   12.5638    0.0000 C   0  0  0  0  0  0  0  0  0  0  0  0
   13.2980   25.1276    0.0000 C   0  0  0  0  0  0  0  0  0  0  0  0
   13.2980   13.5638    0.0000 C   0  0  0  0  0  0  0  0  0  0  0  0
   11.5659   24.1276    0.0000 C   0  0  0  0  0  0  0  0  0  0  0  0
   11.5659   12.5638    0.0000 C   0  0  0  0  0  0  0  0  0  0  0  0
   11.5659   25.1276    0.0000 C   0  0  0  0  0  0  0  0  0  0  0  0
   11.5659   13.5638    0.0000 C   0  0  0  0  0  0  0  0  0  0  0  0
   22.3139   13.0638    0.0000 C   0  0  0  0  0  0  0  0  0  0  0  0
   23.1799   12.5638    0.0000 C   0  0  0  0  0  0  0  0  0  0  0  0
   12.2914    1.5000    0.0000 C   0  0  0  0  0  0  0  0  0  0  0  0
   13.1575    1.0000    0.0000 C   0  0  0  0  0  0  0  0  0  0  0  0
    2.2690   13.0638    0.0000 C   0  0  0  0  0  0  0  0  0  0  0  0
    3.1350   12.5638    0.0000 C   0  0  0  0  0  0  0  0  0  0  0  0
   21.4478   12.5638    0.0000 C   0  0  0  0  0  0  0  0  0  0  0  0
   24.0459   13.0638    0.0000 C   0  0  0  0  0  0  0  0  0  0  0  0
   11.4254    1.0000    0.0000 C   0  0  0  0  0  0  0  0  0  0  0  0
   14.0235    1.5000    0.0000 C   0  0  0  0  0  0  0  0  0  0  0  0
    1.4030   12.5638    0.0000 C   0  0  0  0  0  0  0  0  0  0  0  0
    4.0010   13.0638    0.0000 C   0  0  0  0  0  0  0  0  0  0  0  0
    9.4597   17.2502    0.0000 H   0  0  0  0  0  0  0  0  0  0  0  0
    9.4597    5.6864    0.0000 H   0  0  0  0  0  0  0  0  0  0  0  0
   10.3013   17.1527    0.0000 H   0  0  0  0  0  0  0  0  0  0  0  0
   11.0984   17.1527    0.0000 H   0  0  0  0  0  0  0  0  0  0  0  0
    9.6218   19.7103    0.0000 H   0  0  0  0  0  0  0  0  0  0  0  0
    9.2233   19.0200    0.0000 H   0  0  0  0  0  0  0  0  0  0  0  0
   10.3013    5.5889    0.0000 H   0  0  0  0  0  0  0  0  0  0  0  0
   11.0984    5.5889    0.0000 H   0  0  0  0  0  0  0  0  0  0  0  0
    9.6218    8.1464    0.0000 H   0  0  0  0  0  0  0  0  0  0  0  0
    9.2233    7.4562    0.0000 H   0  0  0  0  0  0  0  0  0  0  0  0
    8.5485   16.0628    0.0000 H   0  0  0  0  0  0  0  0  0  0  0  0
    9.3079   16.5013    0.0000 H   0  0  0  0  0  0  0  0  0  0  0  0
    8.1624   18.4853    0.0000 H   0  0  0  0  0  0  0  0  0  0  0  0
    7.4030   18.0469    0.0000 H   0  0  0  0  0  0  0  0  0  0  0  0
    8.5485    4.4990    0.0000 H   0  0  0  0  0  0  0  0  0  0  0  0
    9.3079    4.9374    0.0000 H   0  0  0  0  0  0  0  0  0  0  0  0
    8.1624    6.9215    0.0000 H   0  0  0  0  0  0  0  0  0  0  0  0
    7.4030    6.4831    0.0000 H   0  0  0  0  0  0  0  0  0  0  0  0
   11.7780   17.5450    0.0000 H   0  0  0  0  0  0  0  0  0  0  0  0
   12.1765   18.2353    0.0000 H   0  0  0  0  0  0  0  0  0  0  0  0
   11.0984   20.1026    0.0000 H   0  0  0  0  0  0  0  0  0  0  0  0
   10.3013   20.1026    0.0000 H   0  0  0  0  0  0  0  0  0  0  0  0
   11.7780    5.9812    0.0000 H   0  0  0  0  0  0  0  0  0  0  0  0
   12.1765    6.6715    0.0000 H   0  0  0  0  0  0  0  0  0  0  0  0
   11.0984    8.5388    0.0000 H   0  0  0  0  0  0  0  0  0  0  0  0
   10.3013    8.5388    0.0000 H   0  0  0  0  0  0  0  0  0  0  0  0
   11.8950   20.9376    0.0000 H   0  0  0  0  0  0  0  0  0  0  0  0
   11.8950    9.3738    0.0000 H   0  0  0  0  0  0  0  0  0  0  0  0
   13.2980   18.5076    0.0000 H   0  0  0  0  0  0  0  0  0  0  0  0
   13.2980    6.9438    0.0000 H   0  0  0  0  0  0  0  0  0  0  0  0
   13.2980   21.7476    0.0000 H   0  0  0  0  0  0  0  0  0  0  0  0
   13.2980   10.1838    0.0000 H   0  0  0  0  0  0  0  0  0  0  0  0
   14.7009   19.3176    0.0000 H   0  0  0  0  0  0  0  0  0  0  0  0
   14.7009    7.7538    0.0000 H   0  0  0  0  0  0  0  0  0  0  0  0
   15.5669   20.8176    0.0000 H   0  0  0  0  0  0  0  0  0  0  0  0
   15.5669    9.2538    0.0000 H   0  0  0  0  0  0  0  0  0  0  0  0
   15.0300   24.7476    0.0000 H   0  0  0  0  0  0  0  0  0  0  0  0
   15.0300   13.1838    0.0000 H   0  0  0  0  0  0  0  0  0  0  0  0
   17.0349   24.5217    0.0000 H   0  0  0  0  0  0  0  0  0  0  0  0
   17.0349   12.9579    0.0000 H   0  0  0  0  0  0  0  0  0  0  0  0
   18.0459   23.1276    0.0000 H   0  0  0  0  0  0  0  0  0  0  0  0
   18.0459   11.5638    0.0000 H   0  0  0  0  0  0  0  0  0  0  0  0
   13.8349   25.4376    0.0000 H   0  0  0  0  0  0  0  0  0  0  0  0
   13.8349   13.8738    0.0000 H   0  0  0  0  0  0  0  0  0  0  0  0
   11.0290   25.4376    0.0000 H   0  0  0  0  0  0  0  0  0  0  0  0
   11.0290   13.8738    0.0000 H   0  0  0  0  0  0  0  0  0  0  0  0
   10.1629   23.9376    0.0000 H   0  0  0  0  0  0  0  0  0  0  0  0
   10.6999   23.0076    0.0000 H   0  0  0  0  0  0  0  0  0  0  0  0
   10.1629   12.3738    0.0000 H   0  0  0  0  0  0  0  0  0  0  0  0
   10.6999   11.4438    0.0000 H   0  0  0  0  0  0  0  0  0  0  0  0
   22.7124   13.5388    0.0000 H   0  0  0  0  0  0  0  0  0  0  0  0
   21.9153   13.5388    0.0000 H   0  0  0  0  0  0  0  0  0  0  0  0
   22.7814   12.0889    0.0000 H   0  0  0  0  0  0  0  0  0  0  0  0
   23.5784   12.0889    0.0000 H   0  0  0  0  0  0  0  0  0  0  0  0
   12.6900    1.9750    0.0000 H   0  0  0  0  0  0  0  0  0  0  0  0
   11.8929    1.9750    0.0000 H   0  0  0  0  0  0  0  0  0  0  0  0
   12.7589    0.5251    0.0000 H   0  0  0  0  0  0  0  0  0  0  0  0
   13.5560    0.5251    0.0000 H   0  0  0  0  0  0  0  0  0  0  0  0
    2.6675   13.5388    0.0000 H   0  0  0  0  0  0  0  0  0  0  0  0
    1.8705   13.5388    0.0000 H   0  0  0  0  0  0  0  0  0  0  0  0
    2.7365   12.0889    0.0000 H   0  0  0  0  0  0  0  0  0  0  0  0
    3.5335   12.0889    0.0000 H   0  0  0  0  0  0  0  0  0  0  0  0
   20.0449   12.7538    0.0000 H   0  0  0  0  0  0  0  0  0  0  0  0
   25.4489   12.8738    0.0000 H   0  0  0  0  0  0  0  0  0  0  0  0
   10.0224    1.1900    0.0000 H   0  0  0  0  0  0  0  0  0  0  0  0
   15.4264    1.3100    0.0000 H   0  0  0  0  0  0  0  0  0  0  0  0
    0.0000   12.7538    0.0000 H   0  0  0  0  0  0  0  0  0  0  0  0
    5.4040   12.8738    0.0000 H   0  0  0  0  0  0  0  0  0  0  0  0
  1 39  1  0  0  0  0
  1 40  1  0  0  0  0
  2 41  1  0  0  0  0
  2 42  1  0  0  0  0
  3 85  1  0  0  0  0
  3153  1  0  0  0  0
  4 86  1  0  0  0  0
  4154  1  0  0  0  0
  5 87  1  0  0  0  0
  5155  1  0  0  0  0
  6 88  1  0  0  0  0
  6156  1  0  0  0  0
  7 89  1  0  0  0  0
  7157  1  0  0  0  0
  8 90  1  0  0  0  0
  8158  1  0  0  0  0
  9 85  2  0  0  0  0
 10 86  2  0  0  0  0
 11 87  2  0  0  0  0
 12 88  2  0  0  0  0
 13 89  2  0  0  0  0
 14 90  2  0  0  0  0
 15 33  1  0  0  0  0
 15 35  1  0  0  0  0
 15 36  1  0  0  0  0
 16 34  1  0  0  0  0
 16 37  1  0  0  0  0
 16 38  1  0  0  0  0
 17 43  1  0  0  0  0
 17 44  1  0  0  0  0
 17 47  1  0  0  0  0
 18 45  1  0  0  0  0
 18 46  1  0  0  0  0
 18 48  1  0  0  0  0
 19 57  1  0  0  0  0
 19 59  1  0  0  0  0
 19125  1  0  0  0  0
 20 58  1  0  0  0  0
 20 60  1  0  0  0  0
 20126  1  0  0  0  0
 21 59  2  0  0  0  0
 21 63  1  0  0  0  0
 22 60  2  0  0  0  0
 22 64  1  0  0  0  0
 23 61  1  0  0  0  0
 23 65  1  0  0  0  0
 23 67  1  0  0  0  0
 24 62  1  0  0  0  0
 24 66  1  0  0  0  0
 24 68  1  0  0  0  0
 25 61  2  0  0  0  0
 25 69  1  0  0  0  0
 26 62  2  0  0  0  0
 26 70  1  0  0  0  0
 27 71  1  0  0  0  0
 27 75  2  0  0  0  0
 28 72  1  0  0  0  0
 28 76  2  0  0  0  0
 29 73  1  0  0  0  0
 29 77  2  0  0  0  0
 30 74  1  0  0  0  0
 30 78  2  0  0  0  0
 31 75  1  0  0  0  0
 31137  1  0  0  0  0
 31138  1  0  0  0  0
 32 76  1  0  0  0  0
 32139  1  0  0  0  0
 32140  1  0  0  0  0
 33 39  1  0  0  0  0
 33 40  1  0  0  0  0
 33 91  1  0  0  0  0
 34 41  1  0  0  0  0
 34 42  1  0  0  0  0
 34 92  1  0  0  0  0
 35 43  1  0  0  0  0
 35 93  1  0  0  0  0
 35 94  1  0  0  0  0
 36 44  1  0  0  0  0
 36 95  1  0  0  0  0
 36 96  1  0  0  0  0
 37 45  1  0  0  0  0
 37 97  1  0  0  0  0
 37 98  1  0  0  0  0
 38 46  1  0  0  0  0
 38 99  1  0  0  0  0
 38100  1  0  0  0  0
 39101  1  0  0  0  0
 39102  1  0  0  0  0
 40103  1  0  0  0  0
 40104  1  0  0  0  0
 41105  1  0  0  0  0
 41106  1  0  0  0  0
 42107  1  0  0  0  0
 42108  1  0  0  0  0
 43109  1  0  0  0  0
 43110  1  0  0  0  0
 44111  1  0  0  0  0
 44112  1  0  0  0  0
 45113  1  0  0  0  0
 45114  1  0  0  0  0
 46115  1  0  0  0  0
 46116  1  0  0  0  0
 47 49  2  0  0  0  0
 47 51  1  0  0  0  0
 48 50  2  0  0  0  0
 48 52  1  0  0  0  0
 49 53  1  0  0  0  0
 49117  1  0  0  0  0
 50 54  1  0  0  0  0
 50118  1  0  0  0  0
 51 55  2  0  0  0  0
 51119  1  0  0  0  0
 52 56  2  0  0  0  0
 52120  1  0  0  0  0
 53 57  2  0  0  0  0
 53121  1  0  0  0  0
 54 58  2  0  0  0  0
 54122  1  0  0  0  0
 55 57  1  0  0  0  0
 55123  1  0  0  0  0
 56 58  1  0  0  0  0
 56124  1  0  0  0  0
 59 61  1  0  0  0  0
 60 62  1  0  0  0  0
 63 65  2  0  0  0  0
 63 71  1  0  0  0  0
 64 66  2  0  0  0  0
 64 72  1  0  0  0  0
 65127  1  0  0  0  0
 66128  1  0  0  0  0
 67 69  2  0  0  0  0
 67129  1  0  0  0  0
 68 70  2  0  0  0  0
 68130  1  0  0  0  0
 69131  1  0  0  0  0
 70132  1  0  0  0  0
 71 73  2  0  0  0  0
 72 74  2  0  0  0  0
 73133  1  0  0  0  0
 74134  1  0  0  0  0
 75 77  1  0  0  0  0
 76 78  1  0  0  0  0
 77135  1  0  0  0  0
 78136  1  0  0  0  0
 79 80  1  0  0  0  0
 79 85  1  0  0  0  0
 79141  1  0  0  0  0
 79142  1  0  0  0  0
 80 86  1  0  0  0  0
 80143  1  0  0  0  0
 80144  1  0  0  0  0
 81 82  1  0  0  0  0
 81 87  1  0  0  0  0
 81145  1  0  0  0  0
 81146  1  0  0  0  0
 82 88  1  0  0  0  0
 82147  1  0  0  0  0
 82148  1  0  0  0  0
 83 84  1  0  0  0  0
 83 89  1  0  0  0  0
 83149  1  0  0  0  0
 83150  1  0  0  0  0
 84 90  1  0  0  0  0
 84151  1  0  0  0  0
 84152  1  0  0  0  0
M  END
> <PUBCHEM_COMPOUND_CID>
133082362

> <PUBCHEM_COMPOUND_CANONICALIZED>
1

> <PUBCHEM_CACTVS_COMPLEXITY>
728

> <PUBCHEM_CACTVS_HBOND_ACCEPTOR>
30

> <PUBCHEM_CACTVS_HBOND_DONOR>
10

> <PUBCHEM_CACTVS_ROTATABLE_BOND>
19

> <PUBCHEM_CACTVS_SUBSKEYS>
AAADcfB//AAAAAAAAAAAAAAAAABIkWLAAAA8eLFiwAAAAFgB/gAAHgAQCAAACCjhlwY9+J/MHgCoATb3bACCgC0xEqAJ2CE4dJiKaPLA2ZGVYAhskALYyCdTAAAAAACAAAAAAAAAAQAAAAAAAAAAAAAAAA==

> <PUBCHEM_IUPAC_OPENEYE_NAME>
6-(6-aminopyrazin-2-yl)-N-[4-[4-(oxetan-3-yl)piperazin-1-yl]phenyl]imidazo[1,2-a]pyrazin-8-amine;succinic acid

> <PUBCHEM_IUPAC_CAS_NAME>
6-(6-amino-2-pyrazinyl)-N-[4-[4-(3-oxetanyl)-1-piperazinyl]phenyl]-8-imidazo[1,2-a]pyrazinamine;butanedioic acid

> <PUBCHEM_IUPAC_NAME_MARKUP>
6-(6-aminopyrazin-2-yl)-<I>N</I>-[4-[4-(oxetan-3-yl)piperazin-1-yl]phenyl]imidazo[1,2-a]pyrazin-8-amine;butanedioic acid

> <PUBCHEM_IUPAC_NAME>
6-(6-aminopyrazin-2-yl)-N-[4-[4-(oxetan-3-yl)piperazin-1-yl]phenyl]imidazo[1,2-a]pyrazin-8-amine;butanedioic acid

> <PUBCHEM_IUPAC_SYSTEMATIC_NAME>
6-(6-azanylpyrazin-2-yl)-N-[4-[4-(oxetan-3-yl)piperazin-1-yl]phenyl]imidazo[1,2-a]pyrazin-8-amine;butanedioic acid

> <PUBCHEM_IUPAC_TRADITIONAL_NAME>
[6-(6-aminopyrazin-2-yl)imidazo[1,2-a]pyrazin-8-yl]-[4-[4-(oxetan-3-yl)piperazino]phenyl]amine;succinic acid

> <PUBCHEM_IUPAC_INCHI>
InChI=1S/2C23H25N9O.3C4H6O4/c2*24-21-12-25-11-19(28-21)20-13-32-6-5-26-23(32)22(29-20)27-16-1-3-17(4-2-16)30-7-9-31(10-8-30)18-14-33-15-18;3*5-3(6)1-2-4(7)8/h2*1-6,11-13,18H,7-10,14-15H2,(H2,24,28)(H,27,29);3*1-2H2,(H,5,6)(H,7,8)

> <PUBCHEM_IUPAC_INCHIKEY>
SUXNLHAGYIRFJQ-UHFFFAOYSA-N

> <PUBCHEM_EXACT_MASS>
1240.51623892

> <PUBCHEM_MOLECULAR_FORMULA>
C58H68N18O14

> <PUBCHEM_MOLECULAR_WEIGHT>
1241.3

> <PUBCHEM_OPENEYE_CAN_SMILES>
C1CN(CCN1C2COC2)C3=CC=C(C=C3)NC4=NC(=CN5C4=NC=C5)C6=CN=CC(=N6)N.C1CN(CCN1C2COC2)C3=CC=C(C=C3)NC4=NC(=CN5C4=NC=C5)C6=CN=CC(=N6)N.C(CC(=O)O)C(=O)O.C(CC(=O)O)C(=O)O.C(CC(=O)O)C(=O)O

> <PUBCHEM_OPENEYE_ISO_SMILES>
C1CN(CCN1C2COC2)C3=CC=C(C=C3)NC4=NC(=CN5C4=NC=C5)C6=CN=CC(=N6)N.C1CN(CCN1C2COC2)C3=CC=C(C=C3)NC4=NC(=CN5C4=NC=C5)C6=CN=CC(=N6)N.C(CC(=O)O)C(=O)O.C(CC(=O)O)C(=O)O.C(CC(=O)O)C(=O)O

> <PUBCHEM_CACTVS_TPSA>
443

> <PUBCHEM_MONOISOTOPIC_WEIGHT>
1240.51623892

> <PUBCHEM_TOTAL_CHARGE>
0

> <PUBCHEM_HEAVY_ATOM_COUNT>
90

> <PUBCHEM_ATOM_DEF_STEREO_COUNT>
0

> <PUBCHEM_ATOM_UDEF_STEREO_COUNT>
0

> <PUBCHEM_BOND_DEF_STEREO_COUNT>
0

> <PUBCHEM_BOND_UDEF_STEREO_COUNT>
0

> <PUBCHEM_ISOTOPIC_ATOM_COUNT>
0

> <PUBCHEM_COMPONENT_COUNT>
5

> <PUBCHEM_CACTVS_TAUTO_COUNT>
-1

> <PUBCHEM_COORDINATE_TYPE>
1
5
255

> <PUBCHEM_BONDANNOTATIONS>
21  59  8
21  63  8
22  60  8
22  64  8
23  61  8
23  65  8
23  67  8
24  62  8
24  66  8
24  68  8
25  61  8
25  69  8
26  62  8
26  70  8
27  71  8
27  75  8
28  72  8
28  76  8
29  73  8
29  77  8
30  74  8
30  78  8
47  49  8
47  51  8
48  50  8
48  52  8
49  53  8
50  54  8
51  55  8
52  56  8
53  57  8
54  58  8
55  57  8
56  58  8
59  61  8
60  62  8
63  65  8
64  66  8
67  69  8
68  70  8
71  73  8
72  74  8
75  77  8
76  78  8

$$$$
5281708
  -OEChem-11282412102D

 29 31  0     0  0  0  0  0  0999 V2000
    6.0682   -1.7327    0.0000 O   0  0  0  0  0  0  0  0  0  0  0  0
    6.0682    1.2673    0.0000 O   0  0  0  0  0  0  0  0  0  0  0  0
    2.5381   -1.7568    0.0000 O   0  0  0  0  0  0  0  0  0  0  0  0
   10.3984    1.7673    0.0000 O   0  0  0  0  0  0  0  0  0  0  0  0
    5.2022   -0.2327    0.0000 C   0  0  0  0  0  0  0  0  0  0  0  0
    6.9343   -0.2327    0.0000 C   0  0  0  0  0  0  0  0  0  0  0  0
    5.2022   -1.2327    0.0000 C   0  0  0  0  0  0  0  0  0  0  0  0
    6.0682    0.2673    0.0000 C   0  0  0  0  0  0  0  0  0  0  0  0
    7.8003    0.2673    0.0000 C   0  0  0  0  0  0  0  0  0  0  0  0
    6.9343   -1.2327    0.0000 C   0  0  0  0  0  0  0  0  0  0  0  0
    4.3083    0.3020    0.0000 C   0  0  0  0  0  0  0  0  0  0  0  0
    4.3083   -1.7673    0.0000 C   0  0  0  0  0  0  0  0  0  0  0  0
    7.8003    1.2673    0.0000 C   0  0  0  0  0  0  0  0  0  0  0  0
    8.6663   -0.2327    0.0000 C   0  0  0  0  0  0  0  0  0  0  0  0
    3.4022   -1.2535    0.0000 C   0  0  0  0  0  0  0  0  0  0  0  0
    3.4022   -0.2119    0.0000 C   0  0  0  0  0  0  0  0  0  0  0  0
    8.6663    1.7673    0.0000 C   0  0  0  0  0  0  0  0  0  0  0  0
    9.5323    0.2673    0.0000 C   0  0  0  0  0  0  0  0  0  0  0  0
    9.5323    1.2673    0.0000 C   0  0  0  0  0  0  0  0  0  0  0  0
    7.4712   -1.5427    0.0000 H   0  0  0  0  0  0  0  0  0  0  0  0
    4.3154    0.9220    0.0000 H   0  0  0  0  0  0  0  0  0  0  0  0
    4.3154   -2.3873    0.0000 H   0  0  0  0  0  0  0  0  0  0  0  0
    7.2634    1.5773    0.0000 H   0  0  0  0  0  0  0  0  0  0  0  0
    8.6663   -0.8527    0.0000 H   0  0  0  0  0  0  0  0  0  0  0  0
    2.8665    0.1002    0.0000 H   0  0  0  0  0  0  0  0  0  0  0  0
    8.6663    2.3873    0.0000 H   0  0  0  0  0  0  0  0  0  0  0  0
   10.0693   -0.0427    0.0000 H   0  0  0  0  0  0  0  0  0  0  0  0
    2.0000   -1.4489    0.0000 H   0  0  0  0  0  0  0  0  0  0  0  0
   10.9353    1.4573    0.0000 H   0  0  0  0  0  0  0  0  0  0  0  0
  1  7  1  0  0  0  0
  1 10  1  0  0  0  0
  2  8  2  0  0  0  0
  3 15  1  0  0  0  0
  3 28  1  0  0  0  0
  4 19  1  0  0  0  0
  4 29  1  0  0  0  0
  5  7  2  0  0  0  0
  5  8  1  0  0  0  0
  5 11  1  0  0  0  0
  6  8  1  0  0  0  0
  6  9  1  0  0  0  0
  6 10  2  0  0  0  0
  7 12  1  0  0  0  0
  9 13  2  0  0  0  0
  9 14  1  0  0  0  0
 10 20  1  0  0  0  0
 11 16  2  0  0  0  0
 11 21  1  0  0  0  0
 12 15  2  0  0  0  0
 12 22  1  0  0  0  0
 13 17  1  0  0  0  0
 13 23  1  0  0  0  0
 14 18  2  0  0  0  0
 14 24  1  0  0  0  0
 15 16  1  0  0  0  0
 16 25  1  0  0  0  0
 17 19  2  0  0  0  0
 17 26  1  0  0  0  0
 18 19  1  0  0  0  0
 18 27  1  0  0  0  0
M  END
> <PUBCHEM_COMPOUND_CID>
5281708

> <PUBCHEM_COMPOUND_CANONICALIZED>
1

> <PUBCHEM_CACTVS_COMPLEXITY>
382

> <PUBCHEM_CACTVS_HBOND_ACCEPTOR>
4

> <PUBCHEM_CACTVS_HBOND_DONOR>
2

> <PUBCHEM_CACTVS_ROTATABLE_BOND>
1

> <PUBCHEM_CACTVS_SUBSKEYS>
AAADccBwOAAAAAAAAAAAAAAAAAAAAAAAAAAwYIAAAAAAAACBQAAAGgAACAAADASgmAIwBoAABgCIAqBSAAACCAAkIAAIiAEGCMgMJzaGNRqAcWAl4BUIuYeI7PzOIAAACAAIAABAAAAQABAAAAAAAAAAAA==

> <PUBCHEM_IUPAC_OPENEYE_NAME>
7-hydroxy-3-(4-hydroxyphenyl)chromen-4-one

> <PUBCHEM_IUPAC_CAS_NAME>
7-hydroxy-3-(4-hydroxyphenyl)-1-benzopyran-4-one

> <PUBCHEM_IUPAC_NAME_MARKUP>
7-hydroxy-3-(4-hydroxyphenyl)chromen-4-one

> <PUBCHEM_IUPAC_NAME>
7-hydroxy-3-(4-hydroxyphenyl)chromen-4-one

> <PUBCHEM_IUPAC_SYSTEMATIC_NAME>
3-(4-hydroxyphenyl)-7-oxidanyl-chromen-4-one

> <PUBCHEM_IUPAC_TRADITIONAL_NAME>
7-hydroxy-3-(4-hydroxyphenyl)chromone

> <PUBCHEM_IUPAC_INCHI>
InChI=1S/C15H10O4/c16-10-3-1-9(2-4-10)13-8-19-14-7-11(17)5-6-12(14)15(13)18/h1-8,16-17H

> <PUBCHEM_IUPAC_INCHIKEY>
ZQSIJRDFPHDXIC-UHFFFAOYSA-N

> <PUBCHEM_XLOGP3_AA>
2.5

> <PUBCHEM_EXACT_MASS>
254.05790880

> <PUBCHEM_MOLECULAR_FORMULA>
C15H10O4

> <PUBCHEM_MOLECULAR_WEIGHT>
254.24

> <PUBCHEM_OPENEYE_CAN_SMILES>
C1=CC(=CC=C1C2=COC3=C(C2=O)C=CC(=C3)O)O

> <PUBCHEM_OPENEYE_ISO_SMILES>
C1=CC(=CC=C1C2=COC3=C(C2=O)C=CC(=C3)O)O

> <PUBCHEM_CACTVS_TPSA>
66.8

> <PUBCHEM_MONOISOTOPIC_WEIGHT>
254.05790880

> <PUBCHEM_TOTAL_CHARGE>
0

> <PUBCHEM_HEAVY_ATOM_COUNT>
19

> <PUBCHEM_ATOM_DEF_STEREO_COUNT>
0

> <PUBCHEM_ATOM_UDEF_STEREO_COUNT>
0

> <PUBCHEM_BOND_DEF_STEREO_COUNT>
0

> <PUBCHEM_BOND_UDEF_STEREO_COUNT>
0

> <PUBCHEM_ISOTOPIC_ATOM_COUNT>
0

> <PUBCHEM_COMPONENT_COUNT>
1

> <PUBCHEM_CACTVS_TAUTO_COUNT>
-1

> <PUBCHEM_COORDINATE_TYPE>
1
5
255

> <PUBCHEM_BONDANNOTATIONS>
1  10  8
1  7  8
11  16  8
12  15  8
13  17  8
14  18  8
15  16  8
17  19  8
18  19  8
5  11  8
5  7  8
5  8  8
6  10  8
6  8  8
7  12  8
9  13  8
9  14  8

$$$$
25184035
  -OEChem-11282412102D

 76 79  0     0  0  0  0  0  0999 V2000
    8.2058    2.5102    0.0000 Cl  0  0  0  0  0  0  0  0  0  0  0  0
    8.2058    0.0000    0.0000 Cl  0  0  0  0  0  0  0  0  0  0  0  0
    8.2547   12.0823    0.0000 S   0  0  0  0  0  0  0  0  0  0  0  0
    0.3009   13.3332    0.0000 O   0  0  0  0  0  0  0  0  0  0  0  0
    4.8830   13.4040    0.0000 O   0  0  0  0  0  0  0  0  0  0  0  0
   15.5691    5.4272    0.0000 O   0  0  0  0  0  0  0  0  0  0  0  0
   12.8108    7.3817    0.0000 O   0  0  0  0  0  0  0  0  0  0  0  0
    2.2588   13.7415    0.0000 N   0  0  0  0  0  0  0  0  0  0  0  0
    7.7547   10.5434    0.0000 N   0  0  0  0  0  0  0  0  0  0  0  0
    9.3664   10.5448    0.0000 N   0  0  0  0  0  0  0  0  0  0  0  0
   14.6555    5.0205    0.0000 N   0  0  0  0  0  0  0  0  0  0  0  0
   12.9919    5.6591    0.0000 N   0  0  0  0  0  0  0  0  0  0  0  0
   11.4096    6.3636    0.0000 N   0  0  0  0  0  0  0  0  0  0  0  0
    1.5926   14.4872    0.0000 C   0  0  0  0  0  0  0  0  0  0  0  0
    1.9462   12.7916    0.0000 C   0  0  0  0  0  0  0  0  0  0  0  0
    3.2378   13.9456    0.0000 C   0  0  0  0  0  0  0  0  0  0  0  0
    0.6136   14.2830    0.0000 C   0  0  0  0  0  0  0  0  0  0  0  0
    0.9672   12.5875    0.0000 C   0  0  0  0  0  0  0  0  0  0  0  0
   16.2077    7.0909    0.0000 C   0  0  0  0  0  0  0  0  0  0  0  0
    3.9040   13.1999    0.0000 C   0  0  0  0  0  0  0  0  0  0  0  0
   15.4646    6.4218    0.0000 C   0  0  0  0  0  0  0  0  0  0  0  0
   16.9508    7.7600    0.0000 C   0  0  0  0  0  0  0  0  0  0  0  0
   16.8768    6.3477    0.0000 C   0  0  0  0  0  0  0  0  0  0  0  0
   15.5386    7.8340    0.0000 C   0  0  0  0  0  0  0  0  0  0  0  0
    6.9457   11.1312    0.0000 C   0  0  0  0  0  0  0  0  0  0  0  0
    7.2547   12.0823    0.0000 C   0  0  0  0  0  0  0  0  0  0  0  0
    5.5492   12.6583    0.0000 C   0  0  0  0  0  0  0  0  0  0  0  0
    8.5637   11.1312    0.0000 C   0  0  0  0  0  0  0  0  0  0  0  0
    6.5698   12.8670    0.0000 C   0  0  0  0  0  0  0  0  0  0  0  0
    5.9303   10.8990    0.0000 C   0  0  0  0  0  0  0  0  0  0  0  0
    8.0644    9.5988    0.0000 C   0  0  0  0  0  0  0  0  0  0  0  0
   14.4864    6.6297    0.0000 C   0  0  0  0  0  0  0  0  0  0  0  0
    5.2274   11.6677    0.0000 C   0  0  0  0  0  0  0  0  0  0  0  0
    9.0584    9.5997    0.0000 C   0  0  0  0  0  0  0  0  0  0  0  0
   13.9864    5.7636    0.0000 C   0  0  0  0  0  0  0  0  0  0  0  0
    9.6462    8.7906    0.0000 C   0  0  0  0  0  0  0  0  0  0  0  0
    9.2395    7.8771    0.0000 C   0  0  0  0  0  0  0  0  0  0  0  0
   10.6407    8.8952    0.0000 C   0  0  0  0  0  0  0  0  0  0  0  0
   10.8218    7.1726    0.0000 C   0  0  0  0  0  0  0  0  0  0  0  0
    9.8273    7.0681    0.0000 C   0  0  0  0  0  0  0  0  0  0  0  0
   11.2285    8.0862    0.0000 C   0  0  0  0  0  0  0  0  0  0  0  0
   12.4041    6.4681    0.0000 C   0  0  0  0  0  0  0  0  0  0  0  0
    2.1196   14.8137    0.0000 H   0  0  0  0  0  0  0  0  0  0  0  0
    1.3625   15.0629    0.0000 H   0  0  0  0  0  0  0  0  0  0  0  0
    1.9654   12.1719    0.0000 H   0  0  0  0  0  0  0  0  0  0  0  0
    2.5598   12.7030    0.0000 H   0  0  0  0  0  0  0  0  0  0  0  0
    3.7648   14.2721    0.0000 H   0  0  0  0  0  0  0  0  0  0  0  0
    3.0077   14.5213    0.0000 H   0  0  0  0  0  0  0  0  0  0  0  0
    0.5944   14.9027    0.0000 H   0  0  0  0  0  0  0  0  0  0  0  0
    0.0000   14.3717    0.0000 H   0  0  0  0  0  0  0  0  0  0  0  0
    0.4402   12.2609    0.0000 H   0  0  0  0  0  0  0  0  0  0  0  0
    1.1972   12.0117    0.0000 H   0  0  0  0  0  0  0  0  0  0  0  0
    3.3770   12.8734    0.0000 H   0  0  0  0  0  0  0  0  0  0  0  0
    4.1341   12.6241    0.0000 H   0  0  0  0  0  0  0  0  0  0  0  0
   17.3657    7.2993    0.0000 H   0  0  0  0  0  0  0  0  0  0  0  0
   17.4116    8.1749    0.0000 H   0  0  0  0  0  0  0  0  0  0  0  0
   16.5360    8.2208    0.0000 H   0  0  0  0  0  0  0  0  0  0  0  0
   16.4161    5.9329    0.0000 H   0  0  0  0  0  0  0  0  0  0  0  0
   17.2917    5.8870    0.0000 H   0  0  0  0  0  0  0  0  0  0  0  0
   17.3376    6.7626    0.0000 H   0  0  0  0  0  0  0  0  0  0  0  0
   15.9993    8.2489    0.0000 H   0  0  0  0  0  0  0  0  0  0  0  0
   15.1237    8.2948    0.0000 H   0  0  0  0  0  0  0  0  0  0  0  0
   15.0778    7.4192    0.0000 H   0  0  0  0  0  0  0  0  0  0  0  0
    6.7681   13.4544    0.0000 H   0  0  0  0  0  0  0  0  0  0  0  0
    5.7455   10.3071    0.0000 H   0  0  0  0  0  0  0  0  0  0  0  0
    7.7008    9.0966    0.0000 H   0  0  0  0  0  0  0  0  0  0  0  0
   14.2342    7.1961    0.0000 H   0  0  0  0  0  0  0  0  0  0  0  0
    4.6214   11.5364    0.0000 H   0  0  0  0  0  0  0  0  0  0  0  0
    8.6229    7.8123    0.0000 H   0  0  0  0  0  0  0  0  0  0  0  0
   10.8929    9.4616    0.0000 H   0  0  0  0  0  0  0  0  0  0  0  0
   12.7397    5.0927    0.0000 H   0  0  0  0  0  0  0  0  0  0  0  0
    9.5751    6.5017    0.0000 H   0  0  0  0  0  0  0  0  0  0  0  0
   11.8451    8.1510    0.0000 H   0  0  0  0  0  0  0  0  0  0  0  0
   11.1574    5.7972    0.0000 H   0  0  0  0  0  0  0  0  0  0  0  0
    9.2058    2.5102    0.0000 H   0  0  0  0  0  0  0  0  0  0  0  0
    9.2058    0.0000    0.0000 H   0  0  0  0  0  0  0  0  0  0  0  0
  1 75  1  0  0  0  0
  2 76  1  0  0  0  0
  3 26  1  0  0  0  0
  3 28  1  0  0  0  0
  4 17  1  0  0  0  0
  4 18  1  0  0  0  0
  5 20  1  0  0  0  0
  5 27  1  0  0  0  0
  6 11  1  0  0  0  0
  6 21  1  0  0  0  0
  7 42  2  0  0  0  0
  8 14  1  0  0  0  0
  8 15  1  0  0  0  0
  8 16  1  0  0  0  0
  9 25  1  0  0  0  0
  9 28  1  0  0  0  0
  9 31  1  0  0  0  0
 10 28  2  0  0  0  0
 10 34  1  0  0  0  0
 11 35  2  0  0  0  0
 12 35  1  0  0  0  0
 12 42  1  0  0  0  0
 12 71  1  0  0  0  0
 13 39  1  0  0  0  0
 13 42  1  0  0  0  0
 13 74  1  0  0  0  0
 14 17  1  0  0  0  0
 14 43  1  0  0  0  0
 14 44  1  0  0  0  0
 15 18  1  0  0  0  0
 15 45  1  0  0  0  0
 15 46  1  0  0  0  0
 16 20  1  0  0  0  0
 16 47  1  0  0  0  0
 16 48  1  0  0  0  0
 17 49  1  0  0  0  0
 17 50  1  0  0  0  0
 18 51  1  0  0  0  0
 18 52  1  0  0  0  0
 19 21  1  0  0  0  0
 19 22  1  0  0  0  0
 19 23  1  0  0  0  0
 19 24  1  0  0  0  0
 20 53  1  0  0  0  0
 20 54  1  0  0  0  0
 21 32  2  0  0  0  0
 22 55  1  0  0  0  0
 22 56  1  0  0  0  0
 22 57  1  0  0  0  0
 23 58  1  0  0  0  0
 23 59  1  0  0  0  0
 23 60  1  0  0  0  0
 24 61  1  0  0  0  0
 24 62  1  0  0  0  0
 24 63  1  0  0  0  0
 25 26  2  0  0  0  0
 25 30  1  0  0  0  0
 26 29  1  0  0  0  0
 27 29  2  0  0  0  0
 27 33  1  0  0  0  0
 29 64  1  0  0  0  0
 30 33  2  0  0  0  0
 30 65  1  0  0  0  0
 31 34  2  0  0  0  0
 31 66  1  0  0  0  0
 32 35  1  0  0  0  0
 32 67  1  0  0  0  0
 33 68  1  0  0  0  0
 34 36  1  0  0  0  0
 36 37  2  0  0  0  0
 36 38  1  0  0  0  0
 37 40  1  0  0  0  0
 37 69  1  0  0  0  0
 38 41  2  0  0  0  0
 38 70  1  0  0  0  0
 39 40  2  0  0  0  0
 39 41  1  0  0  0  0
 40 72  1  0  0  0  0
 41 73  1  0  0  0  0
M  END
> <PUBCHEM_COMPOUND_CID>
25184035

> <PUBCHEM_COMPOUND_CANONICALIZED>
1

> <PUBCHEM_CACTVS_COMPLEXITY>
849

> <PUBCHEM_CACTVS_HBOND_ACCEPTOR>
8

> <PUBCHEM_CACTVS_HBOND_DONOR>
4

> <PUBCHEM_CACTVS_ROTATABLE_BOND>
8

> <PUBCHEM_CACTVS_SUBSKEYS>
AAADcfB7uABGAAAAAAAAAAAAAAAAAWLFgAA8YIAAAAAWAFgB/AAAHgQUAAAADgzh3gY/97fcHAitA7Z3dgCD+K11Orhp2D0+fNqOburkuZuXOKju1RvY6GewwIAPCEAABAAAAQAQgAAIAAACAAAAAAAAAA==

> <PUBCHEM_IUPAC_OPENEYE_NAME>
1-(5-tert-butylisoxazol-3-yl)-3-[4-[6-(2-morpholinoethoxy)imidazo[2,1-b][1,3]benzothiazol-2-yl]phenyl]urea;dihydrochloride

> <PUBCHEM_IUPAC_CAS_NAME>
1-(5-tert-butyl-3-isoxazolyl)-3-[4-[6-[2-(4-morpholinyl)ethoxy]-2-imidazo[2,1-b][1,3]benzothiazolyl]phenyl]urea;dihydrochloride

> <PUBCHEM_IUPAC_NAME_MARKUP>
1-(5-<I>tert</I>-butyl-1,2-oxazol-3-yl)-3-[4-[6-(2-morpholin-4-ylethoxy)imidazo[2,1-b][1,3]benzothiazol-2-yl]phenyl]urea;dihydrochloride

> <PUBCHEM_IUPAC_NAME>
1-(5-tert-butyl-1,2-oxazol-3-yl)-3-[4-[6-(2-morpholin-4-ylethoxy)imidazo[2,1-b][1,3]benzothiazol-2-yl]phenyl]urea;dihydrochloride

> <PUBCHEM_IUPAC_SYSTEMATIC_NAME>
1-(5-tert-butyl-1,2-oxazol-3-yl)-3-[4-[6-(2-morpholin-4-ylethoxy)imidazo[2,1-b][1,3]benzothiazol-2-yl]phenyl]urea;dihydrochloride

> <PUBCHEM_IUPAC_TRADITIONAL_NAME>
1-(5-tert-butylisoxazol-3-yl)-3-[4-[6-(2-morpholinoethoxy)imidazo[2,1-b][1,3]benzothiazol-2-yl]phenyl]urea;dihydrochloride

> <PUBCHEM_IUPAC_INCHI>
InChI=1S/C29H32N6O4S.2ClH/c1-29(2,3)25-17-26(33-39-25)32-27(36)30-20-6-4-19(5-7-20)22-18-35-23-9-8-21(16-24(23)40-28(35)31-22)38-15-12-34-10-13-37-14-11-34;;/h4-9,16-18H,10-15H2,1-3H3,(H2,30,32,33,36);2*1H

> <PUBCHEM_IUPAC_INCHIKEY>
DHYPGRVMIOATAE-UHFFFAOYSA-N

> <PUBCHEM_EXACT_MASS>
632.1739301

> <PUBCHEM_MOLECULAR_FORMULA>
C29H34Cl2N6O4S

> <PUBCHEM_MOLECULAR_WEIGHT>
633.6

> <PUBCHEM_OPENEYE_CAN_SMILES>
CC(C)(C)C1=CC(=NO1)NC(=O)NC2=CC=C(C=C2)C3=CN4C5=C(C=C(C=C5)OCCN6CCOCC6)SC4=N3.Cl.Cl

> <PUBCHEM_OPENEYE_ISO_SMILES>
CC(C)(C)C1=CC(=NO1)NC(=O)NC2=CC=C(C=C2)C3=CN4C5=C(C=C(C=C5)OCCN6CCOCC6)SC4=N3.Cl.Cl

> <PUBCHEM_CACTVS_TPSA>
134

> <PUBCHEM_MONOISOTOPIC_WEIGHT>
632.1739301

> <PUBCHEM_TOTAL_CHARGE>
0

> <PUBCHEM_HEAVY_ATOM_COUNT>
42

> <PUBCHEM_ATOM_DEF_STEREO_COUNT>
0

> <PUBCHEM_ATOM_UDEF_STEREO_COUNT>
0

> <PUBCHEM_BOND_DEF_STEREO_COUNT>
0

> <PUBCHEM_BOND_UDEF_STEREO_COUNT>
0

> <PUBCHEM_ISOTOPIC_ATOM_COUNT>
0

> <PUBCHEM_COMPONENT_COUNT>
3

> <PUBCHEM_CACTVS_TAUTO_COUNT>
-1

> <PUBCHEM_COORDINATE_TYPE>
1
5
255

> <PUBCHEM_BONDANNOTATIONS>
10  28  8
10  34  8
11  35  8
21  32  8
25  26  8
25  30  8
26  29  8
27  29  8
27  33  8
3  26  8
3  28  8
30  33  8
31  34  8
32  35  8
36  37  8
36  38  8
37  40  8
38  41  8
39  40  8
39  41  8
6  11  8
6  21  8
9  25  8
9  28  8
9  31  8

$$$$
76970819
  -OEChem-11282412102D

180187  0     0  0  0  0  0  0999 V2000
    3.2087    9.8700    0.0000 O   0  0  0  0  0  0  0  0  0  0  0  0
   13.3580    7.6200    0.0000 O   0  0  0  0  0  0  0  0  0  0  0  0
    7.5388   14.3700    0.0000 O   0  0  0  0  0  0  0  0  0  0  0  0
   17.6881   12.1200    0.0000 O   0  0  0  0  0  0  0  0  0  0  0  0
    0.6106   14.3700    0.0000 O   0  0  0  0  0  0  0  0  0  0  0  0
   10.7599   12.1200    0.0000 O   0  0  0  0  0  0  0  0  0  0  0  0
   12.0590   17.7400    0.0000 O   0  0  0  0  0  0  0  0  0  0  0  0
   16.3891   17.2400    0.0000 O   0  0  0  0  0  0  0  0  0  0  0  0
   12.9250   16.2400    0.0000 O   0  0  0  0  0  0  0  0  0  0  0  0
   15.5231   18.7400    0.0000 O   0  0  0  0  0  0  0  0  0  0  0  0
    1.4766    5.8700    0.0000 N   0  0  0  0  0  0  0  0  0  0  0  0
   11.6260    3.6200    0.0000 N   0  0  0  0  0  0  0  0  0  0  0  0
    1.4766    8.8700    0.0000 N   0  0  0  0  0  0  0  0  0  0  0  0
   11.6260    6.6200    0.0000 N   0  0  0  0  0  0  0  0  0  0  0  0
    1.4766    3.8700    0.0000 N   0  0  0  0  0  0  0  0  0  0  0  0
   11.6260    1.6200    0.0000 N   0  0  0  0  0  0  0  0  0  0  0  0
    1.4766   12.8700    0.0000 N   0  0  0  0  0  0  0  0  0  0  0  0
   11.6260   10.6200    0.0000 N   0  0  0  0  0  0  0  0  0  0  0  0
    3.2087   12.8700    0.0000 N   0  0  0  0  0  0  0  0  0  0  0  0
   13.3580   10.6200    0.0000 N   0  0  0  0  0  0  0  0  0  0  0  0
    4.9407   12.8700    0.0000 N   0  0  0  0  0  0  0  0  0  0  0  0
   15.0901   10.6200    0.0000 N   0  0  0  0  0  0  0  0  0  0  0  0
    3.2087   14.8700    0.0000 N   0  0  0  0  0  0  0  0  0  0  0  0
   13.3580   12.6200    0.0000 N   0  0  0  0  0  0  0  0  0  0  0  0
    1.4766   15.8700    0.0000 N   0  0  0  0  0  0  0  0  0  0  0  0
   11.6260   13.6200    0.0000 N   0  0  0  0  0  0  0  0  0  0  0  0
    1.4766    6.8700    0.0000 C   0  0  0  0  0  0  0  0  0  0  0  0
   11.6260    4.6200    0.0000 C   0  0  0  0  0  0  0  0  0  0  0  0
    0.6106    7.3700    0.0000 C   0  0  0  0  0  0  0  0  0  0  0  0
    2.3426    7.3700    0.0000 C   0  0  0  0  0  0  0  0  0  0  0  0
   10.7599    5.1200    0.0000 C   0  0  0  0  0  0  0  0  0  0  0  0
   12.4920    5.1200    0.0000 C   0  0  0  0  0  0  0  0  0  0  0  0
    0.6106    8.3700    0.0000 C   0  0  0  0  0  0  0  0  0  0  0  0
    2.3426    8.3700    0.0000 C   0  0  0  0  0  0  0  0  0  0  0  0
   10.7599    6.1200    0.0000 C   0  0  0  0  0  0  0  0  0  0  0  0
   12.4920    6.1200    0.0000 C   0  0  0  0  0  0  0  0  0  0  0  0
    2.3426    5.3700    0.0000 C   0  0  0  0  0  0  0  0  0  0  0  0
    0.6106    5.3700    0.0000 C   0  0  0  0  0  0  0  0  0  0  0  0
   12.4920    3.1200    0.0000 C   0  0  0  0  0  0  0  0  0  0  0  0
   10.7599    3.1200    0.0000 C   0  0  0  0  0  0  0  0  0  0  0  0
    2.3426    4.3700    0.0000 C   0  0  0  0  0  0  0  0  0  0  0  0
    0.6106    4.3700    0.0000 C   0  0  0  0  0  0  0  0  0  0  0  0
   12.4920    2.1200    0.0000 C   0  0  0  0  0  0  0  0  0  0  0  0
   10.7599    2.1200    0.0000 C   0  0  0  0  0  0  0  0  0  0  0  0
    1.4766    9.8700    0.0000 C   0  0  0  0  0  0  0  0  0  0  0  0
   11.6260    7.6200    0.0000 C   0  0  0  0  0  0  0  0  0  0  0  0
    1.4766    2.8700    0.0000 C   0  0  0  0  0  0  0  0  0  0  0  0
   11.6260    0.6200    0.0000 C   0  0  0  0  0  0  0  0  0  0  0  0
    2.3426   10.3700    0.0000 C   0  0  0  0  0  0  0  0  0  0  0  0
   12.4920    8.1200    0.0000 C   0  0  0  0  0  0  0  0  0  0  0  0
    0.6106   10.3700    0.0000 C   0  0  0  0  0  0  0  0  0  0  0  0
   10.7599    8.1200    0.0000 C   0  0  0  0  0  0  0  0  0  0  0  0
    2.3426   11.3700    0.0000 C   0  0  0  0  0  0  0  0  0  0  0  0
   12.4920    9.1200    0.0000 C   0  0  0  0  0  0  0  0  0  0  0  0
    0.6106   11.3700    0.0000 C   0  0  0  0  0  0  0  0  0  0  0  0
   10.7599    9.1200    0.0000 C   0  0  0  0  0  0  0  0  0  0  0  0
    1.4766   11.8700    0.0000 C   0  0  0  0  0  0  0  0  0  0  0  0
   11.6260    9.6200    0.0000 C   0  0  0  0  0  0  0  0  0  0  0  0
    4.0747   10.3700    0.0000 C   0  0  0  0  0  0  0  0  0  0  0  0
   14.2240    8.1200    0.0000 C   0  0  0  0  0  0  0  0  0  0  0  0
    2.3426   13.3700    0.0000 C   0  0  0  0  0  0  0  0  0  0  0  0
   12.4920   11.1200    0.0000 C   0  0  0  0  0  0  0  0  0  0  0  0
    2.3426   14.3700    0.0000 C   0  0  0  0  0  0  0  0  0  0  0  0
   12.4920   12.1200    0.0000 C   0  0  0  0  0  0  0  0  0  0  0  0
    5.8067   13.3700    0.0000 C   0  0  0  0  0  0  0  0  0  0  0  0
   15.9561   11.1200    0.0000 C   0  0  0  0  0  0  0  0  0  0  0  0
    4.0747   13.3700    0.0000 C   0  0  0  0  0  0  0  0  0  0  0  0
   14.2240   11.1200    0.0000 C   0  0  0  0  0  0  0  0  0  0  0  0
    6.6728   12.8700    0.0000 C   0  0  0  0  0  0  0  0  0  0  0  0
    5.8067   14.3700    0.0000 C   0  0  0  0  0  0  0  0  0  0  0  0
   16.8221   10.6200    0.0000 C   0  0  0  0  0  0  0  0  0  0  0  0
   15.9561   12.1200    0.0000 C   0  0  0  0  0  0  0  0  0  0  0  0
    4.0747   14.3700    0.0000 C   0  0  0  0  0  0  0  0  0  0  0  0
   14.2240   12.1200    0.0000 C   0  0  0  0  0  0  0  0  0  0  0  0
    7.5388   13.3700    0.0000 C   0  0  0  0  0  0  0  0  0  0  0  0
    6.6728   14.8700    0.0000 C   0  0  0  0  0  0  0  0  0  0  0  0
   17.6881   11.1200    0.0000 C   0  0  0  0  0  0  0  0  0  0  0  0
   16.8221   12.6200    0.0000 C   0  0  0  0  0  0  0  0  0  0  0  0
    1.4766   14.8700    0.0000 C   0  0  0  0  0  0  0  0  0  0  0  0
   11.6260   12.6200    0.0000 C   0  0  0  0  0  0  0  0  0  0  0  0
    4.9407   14.8700    0.0000 C   0  0  0  0  0  0  0  0  0  0  0  0
   15.0901   12.6200    0.0000 C   0  0  0  0  0  0  0  0  0  0  0  0
    4.9407   15.8700    0.0000 C   0  0  0  0  0  0  0  0  0  0  0  0
   15.0901   13.6200    0.0000 C   0  0  0  0  0  0  0  0  0  0  0  0
   13.7910   17.7400    0.0000 C   0  0  0  0  0  0  0  0  0  0  0  0
   14.6571   17.2400    0.0000 C   0  0  0  0  0  0  0  0  0  0  0  0
   12.9250   17.2400    0.0000 C   0  0  0  0  0  0  0  0  0  0  0  0
   15.5231   17.7400    0.0000 C   0  0  0  0  0  0  0  0  0  0  0  0
    2.0135    6.5600    0.0000 H   0  0  0  0  0  0  0  0  0  0  0  0
   11.0890    4.3100    0.0000 H   0  0  0  0  0  0  0  0  0  0  0  0
    0.0000    7.4777    0.0000 H   0  0  0  0  0  0  0  0  0  0  0  0
    0.3985    6.7874    0.0000 H   0  0  0  0  0  0  0  0  0  0  0  0
    2.5547    6.7874    0.0000 H   0  0  0  0  0  0  0  0  0  0  0  0
    2.9532    7.4777    0.0000 H   0  0  0  0  0  0  0  0  0  0  0  0
   10.1494    5.2277    0.0000 H   0  0  0  0  0  0  0  0  0  0  0  0
   10.5479    4.5374    0.0000 H   0  0  0  0  0  0  0  0  0  0  0  0
   12.7040    4.5374    0.0000 H   0  0  0  0  0  0  0  0  0  0  0  0
   13.1026    5.2277    0.0000 H   0  0  0  0  0  0  0  0  0  0  0  0
    0.3985    8.9526    0.0000 H   0  0  0  0  0  0  0  0  0  0  0  0
    0.0000    8.2623    0.0000 H   0  0  0  0  0  0  0  0  0  0  0  0
    2.9532    8.2623    0.0000 H   0  0  0  0  0  0  0  0  0  0  0  0
    2.5547    8.9526    0.0000 H   0  0  0  0  0  0  0  0  0  0  0  0
   10.5479    6.7026    0.0000 H   0  0  0  0  0  0  0  0  0  0  0  0
   10.1494    6.0123    0.0000 H   0  0  0  0  0  0  0  0  0  0  0  0
   13.1026    6.0123    0.0000 H   0  0  0  0  0  0  0  0  0  0  0  0
   12.7040    6.7026    0.0000 H   0  0  0  0  0  0  0  0  0  0  0  0
    2.9532    5.2623    0.0000 H   0  0  0  0  0  0  0  0  0  0  0  0
    2.5547    5.9526    0.0000 H   0  0  0  0  0  0  0  0  0  0  0  0
    0.3985    5.9526    0.0000 H   0  0  0  0  0  0  0  0  0  0  0  0
    0.0000    5.2623    0.0000 H   0  0  0  0  0  0  0  0  0  0  0  0
   13.1026    3.0123    0.0000 H   0  0  0  0  0  0  0  0  0  0  0  0
   12.7040    3.7026    0.0000 H   0  0  0  0  0  0  0  0  0  0  0  0
   10.5479    3.7026    0.0000 H   0  0  0  0  0  0  0  0  0  0  0  0
   10.1494    3.0123    0.0000 H   0  0  0  0  0  0  0  0  0  0  0  0
    2.5547    3.7874    0.0000 H   0  0  0  0  0  0  0  0  0  0  0  0
    2.9532    4.4777    0.0000 H   0  0  0  0  0  0  0  0  0  0  0  0
    0.0000    4.4777    0.0000 H   0  0  0  0  0  0  0  0  0  0  0  0
    0.3985    3.7874    0.0000 H   0  0  0  0  0  0  0  0  0  0  0  0
   12.7040    1.5374    0.0000 H   0  0  0  0  0  0  0  0  0  0  0  0
   13.1026    2.2277    0.0000 H   0  0  0  0  0  0  0  0  0  0  0  0
   10.1494    2.2277    0.0000 H   0  0  0  0  0  0  0  0  0  0  0  0
   10.5479    1.5374    0.0000 H   0  0  0  0  0  0  0  0  0  0  0  0
    0.8566    2.8700    0.0000 H   0  0  0  0  0  0  0  0  0  0  0  0
    1.4766    2.2500    0.0000 H   0  0  0  0  0  0  0  0  0  0  0  0
    2.0966    2.8700    0.0000 H   0  0  0  0  0  0  0  0  0  0  0  0
   11.0060    0.6200    0.0000 H   0  0  0  0  0  0  0  0  0  0  0  0
   11.6260    0.0000    0.0000 H   0  0  0  0  0  0  0  0  0  0  0  0
   12.2460    0.6200    0.0000 H   0  0  0  0  0  0  0  0  0  0  0  0
    0.0736   10.0600    0.0000 H   0  0  0  0  0  0  0  0  0  0  0  0
   10.2230    7.8100    0.0000 H   0  0  0  0  0  0  0  0  0  0  0  0
    2.8796   11.6800    0.0000 H   0  0  0  0  0  0  0  0  0  0  0  0
   13.0289    9.4300    0.0000 H   0  0  0  0  0  0  0  0  0  0  0  0
    0.0736   11.6800    0.0000 H   0  0  0  0  0  0  0  0  0  0  0  0
   10.2230    9.4300    0.0000 H   0  0  0  0  0  0  0  0  0  0  0  0
    0.9397   13.1800    0.0000 H   0  0  0  0  0  0  0  0  0  0  0  0
   11.0890   10.9300    0.0000 H   0  0  0  0  0  0  0  0  0  0  0  0
    4.3847    9.8331    0.0000 H   0  0  0  0  0  0  0  0  0  0  0  0
    4.6116   10.6800    0.0000 H   0  0  0  0  0  0  0  0  0  0  0  0
    3.7647   10.9069    0.0000 H   0  0  0  0  0  0  0  0  0  0  0  0
   14.5340    7.5831    0.0000 H   0  0  0  0  0  0  0  0  0  0  0  0
   14.7610    8.4300    0.0000 H   0  0  0  0  0  0  0  0  0  0  0  0
   13.9140    8.6569    0.0000 H   0  0  0  0  0  0  0  0  0  0  0  0
    5.2698   13.6800    0.0000 H   0  0  0  0  0  0  0  0  0  0  0  0
   15.4192   11.4300    0.0000 H   0  0  0  0  0  0  0  0  0  0  0  0
    6.2742   12.3951    0.0000 H   0  0  0  0  0  0  0  0  0  0  0  0
    7.0713   12.3951    0.0000 H   0  0  0  0  0  0  0  0  0  0  0  0
    5.5947   14.9526    0.0000 H   0  0  0  0  0  0  0  0  0  0  0  0
    5.1962   14.2623    0.0000 H   0  0  0  0  0  0  0  0  0  0  0  0
   16.4236   10.1451    0.0000 H   0  0  0  0  0  0  0  0  0  0  0  0
   17.2207   10.1451    0.0000 H   0  0  0  0  0  0  0  0  0  0  0  0
   15.7440   12.7026    0.0000 H   0  0  0  0  0  0  0  0  0  0  0  0
   15.3455   12.0123    0.0000 H   0  0  0  0  0  0  0  0  0  0  0  0
    4.9407   12.2500    0.0000 H   0  0  0  0  0  0  0  0  0  0  0  0
   15.0901   10.0000    0.0000 H   0  0  0  0  0  0  0  0  0  0  0  0
    7.7508   12.7874    0.0000 H   0  0  0  0  0  0  0  0  0  0  0  0
    8.1494   13.4777    0.0000 H   0  0  0  0  0  0  0  0  0  0  0  0
    7.0713   15.3449    0.0000 H   0  0  0  0  0  0  0  0  0  0  0  0
    6.2742   15.3449    0.0000 H   0  0  0  0  0  0  0  0  0  0  0  0
   17.9002   10.5374    0.0000 H   0  0  0  0  0  0  0  0  0  0  0  0
   18.2987   11.2277    0.0000 H   0  0  0  0  0  0  0  0  0  0  0  0
   17.2207   13.0949    0.0000 H   0  0  0  0  0  0  0  0  0  0  0  0
   16.4236   13.0949    0.0000 H   0  0  0  0  0  0  0  0  0  0  0  0
    5.1528   14.2874    0.0000 H   0  0  0  0  0  0  0  0  0  0  0  0
    5.5513   14.9777    0.0000 H   0  0  0  0  0  0  0  0  0  0  0  0
   15.3021   12.0374    0.0000 H   0  0  0  0  0  0  0  0  0  0  0  0
   15.7007   12.7277    0.0000 H   0  0  0  0  0  0  0  0  0  0  0  0
    5.5607   15.8700    0.0000 H   0  0  0  0  0  0  0  0  0  0  0  0
    4.9407   16.4900    0.0000 H   0  0  0  0  0  0  0  0  0  0  0  0
    4.3207   15.8700    0.0000 H   0  0  0  0  0  0  0  0  0  0  0  0
   15.7101   13.6200    0.0000 H   0  0  0  0  0  0  0  0  0  0  0  0
   15.0901   14.2400    0.0000 H   0  0  0  0  0  0  0  0  0  0  0  0
   14.4701   13.6200    0.0000 H   0  0  0  0  0  0  0  0  0  0  0  0
    0.9397   16.1800    0.0000 H   0  0  0  0  0  0  0  0  0  0  0  0
    2.0135   16.1800    0.0000 H   0  0  0  0  0  0  0  0  0  0  0  0
   11.0890   13.9300    0.0000 H   0  0  0  0  0  0  0  0  0  0  0  0
   12.1629   13.9300    0.0000 H   0  0  0  0  0  0  0  0  0  0  0  0
   13.7910   18.3600    0.0000 H   0  0  0  0  0  0  0  0  0  0  0  0
   14.6571   16.6200    0.0000 H   0  0  0  0  0  0  0  0  0  0  0  0
   11.5220   17.4300    0.0000 H   0  0  0  0  0  0  0  0  0  0  0  0
   16.9260   17.5500    0.0000 H   0  0  0  0  0  0  0  0  0  0  0  0
  1 49  1  0  0  0  0
  1 59  1  0  0  0  0
  2 50  1  0  0  0  0
  2 60  1  0  0  0  0
  3 75  1  0  0  0  0
  3 76  1  0  0  0  0
  4 77  1  0  0  0  0
  4 78  1  0  0  0  0
  5 79  2  0  0  0  0
  6 80  2  0  0  0  0
  7 87  1  0  0  0  0
  7179  1  0  0  0  0
  8 88  1  0  0  0  0
  8180  1  0  0  0  0
  9 87  2  0  0  0  0
 10 88  2  0  0  0  0
 11 27  1  0  0  0  0
 11 37  1  0  0  0  0
 11 38  1  0  0  0  0
 12 28  1  0  0  0  0
 12 39  1  0  0  0  0
 12 40  1  0  0  0  0
 13 33  1  0  0  0  0
 13 34  1  0  0  0  0
 13 45  1  0  0  0  0
 14 35  1  0  0  0  0
 14 36  1  0  0  0  0
 14 46  1  0  0  0  0
 15 41  1  0  0  0  0
 15 42  1  0  0  0  0
 15 47  1  0  0  0  0
 16 43  1  0  0  0  0
 16 44  1  0  0  0  0
 16 48  1  0  0  0  0
 17 57  1  0  0  0  0
 17 61  1  0  0  0  0
 17135  1  0  0  0  0
 18 58  1  0  0  0  0
 18 62  1  0  0  0  0
 18136  1  0  0  0  0
 19 61  2  0  0  0  0
 19 67  1  0  0  0  0
 20 62  2  0  0  0  0
 20 68  1  0  0  0  0
 21 65  1  0  0  0  0
 21 67  1  0  0  0  0
 21153  1  0  0  0  0
 22 66  1  0  0  0  0
 22 68  1  0  0  0  0
 22154  1  0  0  0  0
 23 63  2  0  0  0  0
 23 73  1  0  0  0  0
 24 64  2  0  0  0  0
 24 74  1  0  0  0  0
 25 79  1  0  0  0  0
 25173  1  0  0  0  0
 25174  1  0  0  0  0
 26 80  1  0  0  0  0
 26175  1  0  0  0  0
 26176  1  0  0  0  0
 27 29  1  0  0  0  0
 27 30  1  0  0  0  0
 27 89  1  0  0  0  0
 28 31  1  0  0  0  0
 28 32  1  0  0  0  0
 28 90  1  0  0  0  0
 29 33  1  0  0  0  0
 29 91  1  0  0  0  0
 29 92  1  0  0  0  0
 30 34  1  0  0  0  0
 30 93  1  0  0  0  0
 30 94  1  0  0  0  0
 31 35  1  0  0  0  0
 31 95  1  0  0  0  0
 31 96  1  0  0  0  0
 32 36  1  0  0  0  0
 32 97  1  0  0  0  0
 32 98  1  0  0  0  0
 33 99  1  0  0  0  0
 33100  1  0  0  0  0
 34101  1  0  0  0  0
 34102  1  0  0  0  0
 35103  1  0  0  0  0
 35104  1  0  0  0  0
 36105  1  0  0  0  0
 36106  1  0  0  0  0
 37 41  1  0  0  0  0
 37107  1  0  0  0  0
 37108  1  0  0  0  0
 38 42  1  0  0  0  0
 38109  1  0  0  0  0
 38110  1  0  0  0  0
 39 43  1  0  0  0  0
 39111  1  0  0  0  0
 39112  1  0  0  0  0
 40 44  1  0  0  0  0
 40113  1  0  0  0  0
 40114  1  0  0  0  0
 41115  1  0  0  0  0
 41116  1  0  0  0  0
 42117  1  0  0  0  0
 42118  1  0  0  0  0
 43119  1  0  0  0  0
 43120  1  0  0  0  0
 44121  1  0  0  0  0
 44122  1  0  0  0  0
 45 49  2  0  0  0  0
 45 51  1  0  0  0  0
 46 50  2  0  0  0  0
 46 52  1  0  0  0  0
 47123  1  0  0  0  0
 47124  1  0  0  0  0
 47125  1  0  0  0  0
 48126  1  0  0  0  0
 48127  1  0  0  0  0
 48128  1  0  0  0  0
 49 53  1  0  0  0  0
 50 54  1  0  0  0  0
 51 55  2  0  0  0  0
 51129  1  0  0  0  0
 52 56  2  0  0  0  0
 52130  1  0  0  0  0
 53 57  2  0  0  0  0
 53131  1  0  0  0  0
 54 58  2  0  0  0  0
 54132  1  0  0  0  0
 55 57  1  0  0  0  0
 55133  1  0  0  0  0
 56 58  1  0  0  0  0
 56134  1  0  0  0  0
 59137  1  0  0  0  0
 59138  1  0  0  0  0
 59139  1  0  0  0  0
 60140  1  0  0  0  0
 60141  1  0  0  0  0
 60142  1  0  0  0  0
 61 63  1  0  0  0  0
 62 64  1  0  0  0  0
 63 79  1  0  0  0  0
 64 80  1  0  0  0  0
 65 69  1  0  0  0  0
 65 70  1  0  0  0  0
 65143  1  0  0  0  0
 66 71  1  0  0  0  0
 66 72  1  0  0  0  0
 66144  1  0  0  0  0
 67 73  2  0  0  0  0
 68 74  2  0  0  0  0
 69 75  1  0  0  0  0
 69145  1  0  0  0  0
 69146  1  0  0  0  0
 70 76  1  0  0  0  0
 70147  1  0  0  0  0
 70148  1  0  0  0  0
 71 77  1  0  0  0  0
 71149  1  0  0  0  0
 71150  1  0  0  0  0
 72 78  1  0  0  0  0
 72151  1  0  0  0  0
 72152  1  0  0  0  0
 73 81  1  0  0  0  0
 74 82  1  0  0  0  0
 75155  1  0  0  0  0
 75156  1  0  0  0  0
 76157  1  0  0  0  0
 76158  1  0  0  0  0
 77159  1  0  0  0  0
 77160  1  0  0  0  0
 78161  1  0  0  0  0
 78162  1  0  0  0  0
 81 83  1  0  0  0  0
 81163  1  0  0  0  0
 81164  1  0  0  0  0
 82 84  1  0  0  0  0
 82165  1  0  0  0  0
 82166  1  0  0  0  0
 83167  1  0  0  0  0
 83168  1  0  0  0  0
 83169  1  0  0  0  0
 84170  1  0  0  0  0
 84171  1  0  0  0  0
 84172  1  0  0  0  0
 85 86  2  0  0  0  0
 85 87  1  0  0  0  0
 85177  1  0  0  0  0
 86 88  1  0  0  0  0
 86178  1  0  0  0  0
M  END
> <PUBCHEM_COMPOUND_CID>
76970819

> <PUBCHEM_COMPOUND_CANONICALIZED>
1

> <PUBCHEM_CACTVS_COMPLEXITY>
904

> <PUBCHEM_CACTVS_HBOND_ACCEPTOR>
24

> <PUBCHEM_CACTVS_HBOND_DONOR>
8

> <PUBCHEM_CACTVS_ROTATABLE_BOND>
20

> <PUBCHEM_CACTVS_SUBSKEYS>
AAADcfB//AAAAAAAAAAAAAAAAAAAAAAAAAA8eLFiwAAAAAAB9AAAHgAQCAAACCzhlgYz/pPIFgCoASfyfACCiC0nMiAJmIG/fMiOZmrE+buXMKhu0BvY+eeQUAMAAACAAgAAEAAAAQAEAAAgAAAAAAAAAA==

> <PUBCHEM_IUPAC_OPENEYE_NAME>
6-ethyl-3-[3-methoxy-4-[4-(4-methylpiperazin-1-yl)-1-piperidyl]anilino]-5-(tetrahydropyran-4-ylamino)pyrazine-2-carboxamide;fumaric acid

> <PUBCHEM_IUPAC_CAS_NAME>
(E)-2-butenedioic acid;6-ethyl-3-[3-methoxy-4-[4-(4-methyl-1-piperazinyl)-1-piperidinyl]anilino]-5-(4-oxanylamino)-2-pyrazinecarboxamide

> <PUBCHEM_IUPAC_NAME_MARKUP>
(<I>E</I>)-but-2-enedioic acid;6-ethyl-3-[3-methoxy-4-[4-(4-methylpiperazin-1-yl)piperidin-1-yl]anilino]-5-(oxan-4-ylamino)pyrazine-2-carboxamide

> <PUBCHEM_IUPAC_NAME>
(E)-but-2-enedioic acid;6-ethyl-3-[3-methoxy-4-[4-(4-methylpiperazin-1-yl)piperidin-1-yl]anilino]-5-(oxan-4-ylamino)pyrazine-2-carboxamide

> <PUBCHEM_IUPAC_SYSTEMATIC_NAME>
(E)-but-2-enedioic acid;6-ethyl-3-[[3-methoxy-4-[4-(4-methylpiperazin-1-yl)piperidin-1-yl]phenyl]amino]-5-(oxan-4-ylamino)pyrazine-2-carboxamide

> <PUBCHEM_IUPAC_TRADITIONAL_NAME>
6-ethyl-3-[3-methoxy-4-[4-(4-methylpiperazino)piperidino]anilino]-5-(tetrahydropyran-4-ylamino)pyrazinamide;fumaric acid

> <PUBCHEM_IUPAC_INCHI>
InChI=1S/2C29H44N8O3.C4H4O4/c2*1-4-23-28(31-20-9-17-40-18-10-20)34-29(26(33-23)27(30)38)32-21-5-6-24(25(19-21)39-3)37-11-7-22(8-12-37)36-15-13-35(2)14-16-36;5-3(6)1-2-4(7)8/h2*5-6,19-20,22H,4,7-18H2,1-3H3,(H2,30,38)(H2,31,32,34);1-2H,(H,5,6)(H,7,8)/b;;2-1+

> <PUBCHEM_IUPAC_INCHIKEY>
UJOUWHLYTQFUCU-WXXKFALUSA-N

> <PUBCHEM_EXACT_MASS>
1220.71823320

> <PUBCHEM_MOLECULAR_FORMULA>
C62H92N16O10

> <PUBCHEM_MOLECULAR_WEIGHT>
1221.5

> <PUBCHEM_OPENEYE_CAN_SMILES>
CCC1=C(N=C(C(=N1)C(=O)N)NC2=CC(=C(C=C2)N3CCC(CC3)N4CCN(CC4)C)OC)NC5CCOCC5.CCC1=C(N=C(C(=N1)C(=O)N)NC2=CC(=C(C=C2)N3CCC(CC3)N4CCN(CC4)C)OC)NC5CCOCC5.C(=CC(=O)O)C(=O)O

> <PUBCHEM_OPENEYE_ISO_SMILES>
CCC1=C(N=C(C(=N1)C(=O)N)NC2=CC(=C(C=C2)N3CCC(CC3)N4CCN(CC4)C)OC)NC5CCOCC5.CCC1=C(N=C(C(=N1)C(=O)N)NC2=CC(=C(C=C2)N3CCC(CC3)N4CCN(CC4)C)OC)NC5CCOCC5.C(=C/C(=O)O)\C(=O)O

> <PUBCHEM_CACTVS_TPSA>
317

> <PUBCHEM_MONOISOTOPIC_WEIGHT>
1220.71823320

> <PUBCHEM_TOTAL_CHARGE>
0

> <PUBCHEM_HEAVY_ATOM_COUNT>
88

> <PUBCHEM_ATOM_DEF_STEREO_COUNT>
0

> <PUBCHEM_ATOM_UDEF_STEREO_COUNT>
0

> <PUBCHEM_BOND_DEF_STEREO_COUNT>
1

> <PUBCHEM_BOND_UDEF_STEREO_COUNT>
0

> <PUBCHEM_ISOTOPIC_ATOM_COUNT>
0

> <PUBCHEM_COMPONENT_COUNT>
3

> <PUBCHEM_CACTVS_TAUTO_COUNT>
-1

> <PUBCHEM_COORDINATE_TYPE>
1
5
255

> <PUBCHEM_BONDANNOTATIONS>
19  61  8
19  67  8
20  62  8
20  68  8
23  63  8
23  73  8
24  64  8
24  74  8
45  49  8
45  51  8
46  50  8
46  52  8
49  53  8
50  54  8
51  55  8
52  56  8
53  57  8
54  58  8
55  57  8
56  58  8
61  63  8
62  64  8
67  73  8
68  74  8

$$$$
131801100
  -OEChem-11282412102D

 65 68  0     0  0  0  0  0  0999 V2000
    1.0000    0.9749    0.0000 S   0  0  0  0  0  0  0  0  0  0  0  0
    6.9939    9.2070    0.0000 O   0  0  0  0  0  0  0  0  0  0  0  0
    0.5000    0.1089    0.0000 O   0  0  0  0  0  0  0  0  0  0  0  0
    0.0000    0.9749    0.0000 O   0  0  0  0  0  0  0  0  0  0  0  0
    6.9858   12.0424    0.0000 O   0  0  0  0  0  0  0  0  0  0  0  0
    3.5217   14.0424    0.0000 O   0  0  0  0  0  0  0  0  0  0  0  0
    5.2537   12.0424    0.0000 O   0  0  0  0  0  0  0  0  0  0  0  0
    4.3877   12.5424    0.0000 O   0  0  0  0  0  0  0  0  0  0  0  0
    2.7320    1.9750    0.0000 N   0  0  0  0  0  0  0  0  0  0  0  0
    6.9939    7.4750    0.0000 N   0  0  0  0  0  0  0  0  0  0  0  0
    4.4641    6.9750    0.0000 N   0  0  0  0  0  0  0  0  0  0  0  0
    5.4103    6.6702    0.0000 N   0  0  0  0  0  0  0  0  0  0  0  0
    5.4103    8.2797    0.0000 N   0  0  0  0  0  0  0  0  0  0  0  0
    8.4939    8.3410    0.0000 C   0  0  0  0  0  0  0  0  0  0  0  0
    9.3600    7.8410    0.0000 C   0  0  0  0  0  0  0  0  0  0  0  0
    9.3600    8.8410    0.0000 C   0  0  0  0  0  0  0  0  0  0  0  0
    7.4939    8.3410    0.0000 C   0  0  0  0  0  0  0  0  0  0  0  0
    2.7320    0.9749    0.0000 C   0  0  0  0  0  0  0  0  0  0  0  0
    1.8660    2.4750    0.0000 C   0  0  0  0  0  0  0  0  0  0  0  0
    1.8660    0.4749    0.0000 C   0  0  0  0  0  0  0  0  0  0  0  0
    1.0000    1.9750    0.0000 C   0  0  0  0  0  0  0  0  0  0  0  0
    3.5981    2.4750    0.0000 C   0  0  0  0  0  0  0  0  0  0  0  0
    3.5981    3.4750    0.0000 C   0  0  0  0  0  0  0  0  0  0  0  0
    5.9939    7.4750    0.0000 C   0  0  0  0  0  0  0  0  0  0  0  0
    2.7320    3.9750    0.0000 C   0  0  0  0  0  0  0  0  0  0  0  0
    4.4641    3.9750    0.0000 C   0  0  0  0  0  0  0  0  0  0  0  0
    3.5981    5.4750    0.0000 C   0  0  0  0  0  0  0  0  0  0  0  0
    3.5981    6.4750    0.0000 C   0  0  0  0  0  0  0  0  0  0  0  0
    2.7320    4.9750    0.0000 C   0  0  0  0  0  0  0  0  0  0  0  0
    4.4641    4.9750    0.0000 C   0  0  0  0  0  0  0  0  0  0  0  0
    4.4641    7.9750    0.0000 C   0  0  0  0  0  0  0  0  0  0  0  0
    2.7320    6.9750    0.0000 C   0  0  0  0  0  0  0  0  0  0  0  0
    3.5981    8.4750    0.0000 C   0  0  0  0  0  0  0  0  0  0  0  0
    2.7320    7.9750    0.0000 C   0  0  0  0  0  0  0  0  0  0  0  0
    6.1198   13.5424    0.0000 C   0  0  0  0  0  0  0  0  0  0  0  0
    5.2537   14.0424    0.0000 C   0  0  0  0  0  0  0  0  0  0  0  0
    6.1198   12.5424    0.0000 C   0  0  0  0  0  0  0  0  0  0  0  0
    4.3877   13.5424    0.0000 C   0  0  0  0  0  0  0  0  0  0  0  0
    8.3335    8.9398    0.0000 H   0  0  0  0  0  0  0  0  0  0  0  0
    9.1479    7.2584    0.0000 H   0  0  0  0  0  0  0  0  0  0  0  0
    9.9705    7.7333    0.0000 H   0  0  0  0  0  0  0  0  0  0  0  0
    9.9705    8.9486    0.0000 H   0  0  0  0  0  0  0  0  0  0  0  0
    9.1479    9.4236    0.0000 H   0  0  0  0  0  0  0  0  0  0  0  0
    2.9441    0.3923    0.0000 H   0  0  0  0  0  0  0  0  0  0  0  0
    3.3426    1.0826    0.0000 H   0  0  0  0  0  0  0  0  0  0  0  0
    2.2646    2.9499    0.0000 H   0  0  0  0  0  0  0  0  0  0  0  0
    1.4675    2.9499    0.0000 H   0  0  0  0  0  0  0  0  0  0  0  0
    1.4675    0.0000    0.0000 H   0  0  0  0  0  0  0  0  0  0  0  0
    2.2646    0.0000    0.0000 H   0  0  0  0  0  0  0  0  0  0  0  0
    0.7879    2.5576    0.0000 H   0  0  0  0  0  0  0  0  0  0  0  0
    0.3894    1.8673    0.0000 H   0  0  0  0  0  0  0  0  0  0  0  0
    3.8101    1.8923    0.0000 H   0  0  0  0  0  0  0  0  0  0  0  0
    4.2087    2.5826    0.0000 H   0  0  0  0  0  0  0  0  0  0  0  0
    7.3039    6.9380    0.0000 H   0  0  0  0  0  0  0  0  0  0  0  0
    2.1951    3.6650    0.0000 H   0  0  0  0  0  0  0  0  0  0  0  0
    5.0010    3.6650    0.0000 H   0  0  0  0  0  0  0  0  0  0  0  0
    2.1951    5.2850    0.0000 H   0  0  0  0  0  0  0  0  0  0  0  0
    5.0010    5.2850    0.0000 H   0  0  0  0  0  0  0  0  0  0  0  0
    2.1951    6.6650    0.0000 H   0  0  0  0  0  0  0  0  0  0  0  0
    3.5981    9.0950    0.0000 H   0  0  0  0  0  0  0  0  0  0  0  0
    2.1951    8.2850    0.0000 H   0  0  0  0  0  0  0  0  0  0  0  0
    6.6567   13.8524    0.0000 H   0  0  0  0  0  0  0  0  0  0  0  0
    5.2537   14.6624    0.0000 H   0  0  0  0  0  0  0  0  0  0  0  0
    6.9858   11.4224    0.0000 H   0  0  0  0  0  0  0  0  0  0  0  0
    2.9848   13.7324    0.0000 H   0  0  0  0  0  0  0  0  0  0  0  0
  1  3  2  0  0  0  0
  1  4  2  0  0  0  0
  1 20  1  0  0  0  0
  1 21  1  0  0  0  0
  2 17  2  0  0  0  0
  5 37  1  0  0  0  0
  5 64  1  0  0  0  0
  6 38  1  0  0  0  0
  6 65  1  0  0  0  0
  7 37  2  0  0  0  0
  8 38  2  0  0  0  0
  9 18  1  0  0  0  0
  9 19  1  0  0  0  0
  9 22  1  0  0  0  0
 10 17  1  0  0  0  0
 10 24  1  0  0  0  0
 10 54  1  0  0  0  0
 11 12  1  0  0  0  0
 11 28  1  0  0  0  0
 11 31  1  0  0  0  0
 12 24  2  0  0  0  0
 13 24  1  0  0  0  0
 13 31  2  0  0  0  0
 14 15  1  0  0  0  0
 14 16  1  0  0  0  0
 14 17  1  0  0  0  0
 14 39  1  0  0  0  0
 15 16  1  0  0  0  0
 15 40  1  0  0  0  0
 15 41  1  0  0  0  0
 16 42  1  0  0  0  0
 16 43  1  0  0  0  0
 18 20  1  0  0  0  0
 18 44  1  0  0  0  0
 18 45  1  0  0  0  0
 19 21  1  0  0  0  0
 19 46  1  0  0  0  0
 19 47  1  0  0  0  0
 20 48  1  0  0  0  0
 20 49  1  0  0  0  0
 21 50  1  0  0  0  0
 21 51  1  0  0  0  0
 22 23  1  0  0  0  0
 22 52  1  0  0  0  0
 22 53  1  0  0  0  0
 23 25  2  0  0  0  0
 23 26  1  0  0  0  0
 25 29  1  0  0  0  0
 25 55  1  0  0  0  0
 26 30  2  0  0  0  0
 26 56  1  0  0  0  0
 27 28  1  0  0  0  0
 27 29  2  0  0  0  0
 27 30  1  0  0  0  0
 28 32  2  0  0  0  0
 29 57  1  0  0  0  0
 30 58  1  0  0  0  0
 31 33  1  0  0  0  0
 32 34  1  0  0  0  0
 32 59  1  0  0  0  0
 33 34  2  0  0  0  0
 33 60  1  0  0  0  0
 34 61  1  0  0  0  0
 35 36  2  0  0  0  0
 35 37  1  0  0  0  0
 35 62  1  0  0  0  0
 36 38  1  0  0  0  0
 36 63  1  0  0  0  0
M  END
> <PUBCHEM_COMPOUND_CID>
131801100

> <PUBCHEM_COMPOUND_CANONICALIZED>
1

> <PUBCHEM_CACTVS_COMPLEXITY>
834

> <PUBCHEM_CACTVS_HBOND_ACCEPTOR>
10

> <PUBCHEM_CACTVS_HBOND_DONOR>
3

> <PUBCHEM_CACTVS_ROTATABLE_BOND>
7

> <PUBCHEM_CACTVS_SUBSKEYS>
AAADceB7uABAAAAAAAAAAAAAGAAAAWAAAAA8WIAAAAAAAFgB8AAAHgQYCAAADQjF3wSxuJ/IEgqqAyfyfHDShCshArAdmCE4ZNiILPLAmZGEsAh4mQLo2acQgMAOQAAAAAAAAACAAAAAAAAAAAAAAAAAAA==

> <PUBCHEM_IUPAC_OPENEYE_NAME>
N-[5-[4-[(1,1-dioxo-1,4-thiazinan-4-yl)methyl]phenyl]-[1,2,4]triazolo[1,5-a]pyridin-2-yl]cyclopropanecarboxamide;maleic acid

> <PUBCHEM_IUPAC_CAS_NAME>
(Z)-2-butenedioic acid;N-[5-[4-[(1,1-dioxo-1,4-thiazinan-4-yl)methyl]phenyl]-[1,2,4]triazolo[1,5-a]pyridin-2-yl]cyclopropanecarboxamide

> <PUBCHEM_IUPAC_NAME_MARKUP>
(<I>Z</I>)-but-2-enedioic acid;<I>N</I>-[5-[4-[(1,1-dioxo-1,4-thiazinan-4-yl)methyl]phenyl]-[1,2,4]triazolo[1,5-a]pyridin-2-yl]cyclopropanecarboxamide

> <PUBCHEM_IUPAC_NAME>
(Z)-but-2-enedioic acid;N-[5-[4-[(1,1-dioxo-1,4-thiazinan-4-yl)methyl]phenyl]-[1,2,4]triazolo[1,5-a]pyridin-2-yl]cyclopropanecarboxamide

> <PUBCHEM_IUPAC_SYSTEMATIC_NAME>
N-[5-[4-[[1,1-bis(oxidanylidene)-1,4-thiazinan-4-yl]methyl]phenyl]-[1,2,4]triazolo[1,5-a]pyridin-2-yl]cyclopropanecarboxamide;(Z)-but-2-enedioic acid

> <PUBCHEM_IUPAC_TRADITIONAL_NAME>
N-[5-[4-[(1,1-diketo-1,4-thiazinan-4-yl)methyl]phenyl]-[1,2,4]triazolo[1,5-a]pyridin-2-yl]cyclopropanecarboxamide;maleic acid

> <PUBCHEM_IUPAC_INCHI>
InChI=1S/C21H23N5O3S.C4H4O4/c27-20(17-8-9-17)23-21-22-19-3-1-2-18(26(19)24-21)16-6-4-15(5-7-16)14-25-10-12-30(28,29)13-11-25;5-3(6)1-2-4(7)8/h1-7,17H,8-14H2,(H,23,24,27);1-2H,(H,5,6)(H,7,8)/b;2-1-

> <PUBCHEM_IUPAC_INCHIKEY>
BFENHEAPFWQJFL-BTJKTKAUSA-N

> <PUBCHEM_EXACT_MASS>
541.16311939

> <PUBCHEM_MOLECULAR_FORMULA>
C25H27N5O7S

> <PUBCHEM_MOLECULAR_WEIGHT>
541.6

> <PUBCHEM_OPENEYE_CAN_SMILES>
C1CC1C(=O)NC2=NN3C(=N2)C=CC=C3C4=CC=C(C=C4)CN5CCS(=O)(=O)CC5.C(=CC(=O)O)C(=O)O

> <PUBCHEM_OPENEYE_ISO_SMILES>
C1CC1C(=O)NC2=NN3C(=N2)C=CC=C3C4=CC=C(C=C4)CN5CCS(=O)(=O)CC5.C(=C\C(=O)O)\C(=O)O

> <PUBCHEM_CACTVS_TPSA>
180

> <PUBCHEM_MONOISOTOPIC_WEIGHT>
541.16311939

> <PUBCHEM_TOTAL_CHARGE>
0

> <PUBCHEM_HEAVY_ATOM_COUNT>
38

> <PUBCHEM_ATOM_DEF_STEREO_COUNT>
0

> <PUBCHEM_ATOM_UDEF_STEREO_COUNT>
0

> <PUBCHEM_BOND_DEF_STEREO_COUNT>
1

> <PUBCHEM_BOND_UDEF_STEREO_COUNT>
0

> <PUBCHEM_ISOTOPIC_ATOM_COUNT>
0

> <PUBCHEM_COMPONENT_COUNT>
2

> <PUBCHEM_CACTVS_TAUTO_COUNT>
-1

> <PUBCHEM_COORDINATE_TYPE>
1
5
255

> <PUBCHEM_BONDANNOTATIONS>
11  12  8
11  28  8
11  31  8
12  24  8
13  24  8
13  31  8
23  25  8
23  26  8
25  29  8
26  30  8
27  29  8
27  30  8
28  32  8
31  33  8
32  34  8
33  34  8

$$$$
16760670
  -OEChem-11282412102D

 49 46  0     0  0  0  0  0  0999 V2000
    0.0000    6.4650    0.0000 Cl  0  0  0  0  0  0  0  0  0  0  0  0
    3.0000    6.4650    0.0000 Cl  0  0  0  0  0  0  0  0  0  0  0  0
   13.0991    6.6760    0.0000 F   0  0  0  0  0  0  0  0  0  0  0  0
   13.4651    5.3100    0.0000 F   0  0  0  0  0  0  0  0  0  0  0  0
   12.0991    4.9440    0.0000 F   0  0  0  0  0  0  0  0  0  0  0  0
    7.4030    5.8100    0.0000 O   0  0  0  0  0  0  0  0  0  0  0  0
    9.7326   10.4300    0.0000 O   0  0  0  0  0  0  0  0  0  0  0  0
    9.7326   12.9300    0.0000 O   0  0  0  0  0  0  0  0  0  0  0  0
    9.1350    5.8100    0.0000 N   0  0  0  0  0  0  0  0  0  0  0  0
   10.8671    2.8100    0.0000 N   0  0  0  0  0  0  0  0  0  0  0  0
   10.0010    4.3100    0.0000 N   0  0  0  0  0  0  0  0  0  0  0  0
    9.1350    2.8100    0.0000 N   0  0  0  0  0  0  0  0  0  0  0  0
   11.7331    0.3100    0.0000 N   0  0  0  0  0  0  0  0  0  0  0  0
    6.5369    4.3100    0.0000 N   0  0  0  0  0  0  0  0  0  0  0  0
   10.0010    6.3100    0.0000 C   0  0  0  0  0  0  0  0  0  0  0  0
    9.1350    4.8100    0.0000 C   0  0  0  0  0  0  0  0  0  0  0  0
   11.7331    6.3100    0.0000 C   0  0  0  0  0  0  0  0  0  0  0  0
   10.8671    5.8100    0.0000 C   0  0  0  0  0  0  0  0  0  0  0  0
    8.2690    4.3100    0.0000 C   0  0  0  0  0  0  0  0  0  0  0  0
   10.8671    1.8100    0.0000 C   0  0  0  0  0  0  0  0  0  0  0  0
   10.0010    7.3100    0.0000 C   0  0  0  0  0  0  0  0  0  0  0  0
   10.0010    3.3100    0.0000 C   0  0  0  0  0  0  0  0  0  0  0  0
   11.7331    7.3100    0.0000 C   0  0  0  0  0  0  0  0  0  0  0  0
   10.8671    7.8100    0.0000 C   0  0  0  0  0  0  0  0  0  0  0  0
   11.7331    1.3100    0.0000 C   0  0  0  0  0  0  0  0  0  0  0  0
    8.2690    3.3100    0.0000 C   0  0  0  0  0  0  0  0  0  0  0  0
   12.5991    5.8100    0.0000 C   0  0  0  0  0  0  0  0  0  0  0  0
    7.4030    4.8100    0.0000 C   0  0  0  0  0  0  0  0  0  0  0  0
    8.5981    6.1200    0.0000 H   0  0  0  0  0  0  0  0  0  0  0  0
   10.8671    5.1900    0.0000 H   0  0  0  0  0  0  0  0  0  0  0  0
   10.2565    1.9177    0.0000 H   0  0  0  0  0  0  0  0  0  0  0  0
   10.6550    1.2274    0.0000 H   0  0  0  0  0  0  0  0  0  0  0  0
    9.4641    7.6200    0.0000 H   0  0  0  0  0  0  0  0  0  0  0  0
   11.4040    3.1200    0.0000 H   0  0  0  0  0  0  0  0  0  0  0  0
   12.2700    7.6200    0.0000 H   0  0  0  0  0  0  0  0  0  0  0  0
   10.8671    8.4300    0.0000 H   0  0  0  0  0  0  0  0  0  0  0  0
   12.3437    1.2023    0.0000 H   0  0  0  0  0  0  0  0  0  0  0  0
   11.9451    1.8926    0.0000 H   0  0  0  0  0  0  0  0  0  0  0  0
    7.7320    3.0000    0.0000 H   0  0  0  0  0  0  0  0  0  0  0  0
   12.2700    0.0000    0.0000 H   0  0  0  0  0  0  0  0  0  0  0  0
   11.1962    0.0000    0.0000 H   0  0  0  0  0  0  0  0  0  0  0  0
    6.0000    4.6200    0.0000 H   0  0  0  0  0  0  0  0  0  0  0  0
    6.5369    3.6900    0.0000 H   0  0  0  0  0  0  0  0  0  0  0  0
   10.2695   10.7400    0.0000 H   0  0  0  0  0  0  0  0  0  0  0  0
    9.1956   10.7400    0.0000 H   0  0  0  0  0  0  0  0  0  0  0  0
   10.2695   13.2400    0.0000 H   0  0  0  0  0  0  0  0  0  0  0  0
    9.1956   13.2400    0.0000 H   0  0  0  0  0  0  0  0  0  0  0  0
    1.0000    6.4650    0.0000 H   0  0  0  0  0  0  0  0  0  0  0  0
    4.0000    6.4650    0.0000 H   0  0  0  0  0  0  0  0  0  0  0  0
  1 48  1  0  0  0  0
  2 49  1  0  0  0  0
  3 27  1  0  0  0  0
  4 27  1  0  0  0  0
  5 27  1  0  0  0  0
  6 28  2  0  0  0  0
  7 44  1  0  0  0  0
  7 45  1  0  0  0  0
  8 46  1  0  0  0  0
  8 47  1  0  0  0  0
  9 15  1  0  0  0  0
  9 16  1  0  0  0  0
  9 29  1  0  0  0  0
 10 20  1  0  0  0  0
 10 22  1  0  0  0  0
 10 34  1  0  0  0  0
 11 16  2  0  0  0  0
 11 22  1  0  0  0  0
 12 22  2  0  0  0  0
 12 26  1  0  0  0  0
 13 25  1  0  0  0  0
 13 40  1  0  0  0  0
 13 41  1  0  0  0  0
 14 28  1  0  0  0  0
 14 42  1  0  0  0  0
 14 43  1  0  0  0  0
 15 18  1  0  0  0  0
 15 21  2  0  0  0  0
 16 19  1  0  0  0  0
 17 18  2  0  0  0  0
 17 23  1  0  0  0  0
 17 27  1  0  0  0  0
 18 30  1  0  0  0  0
 19 26  2  0  0  0  0
 19 28  1  0  0  0  0
 20 25  1  0  0  0  0
 20 31  1  0  0  0  0
 20 32  1  0  0  0  0
 21 24  1  0  0  0  0
 21 33  1  0  0  0  0
 23 24  2  0  0  0  0
 23 35  1  0  0  0  0
 24 36  1  0  0  0  0
 25 37  1  0  0  0  0
 25 38  1  0  0  0  0
 26 39  1  0  0  0  0
M  END
> <PUBCHEM_COMPOUND_CID>
16760670

> <PUBCHEM_COMPOUND_CANONICALIZED>
1

> <PUBCHEM_CACTVS_COMPLEXITY>
422

> <PUBCHEM_CACTVS_HBOND_ACCEPTOR>
11

> <PUBCHEM_CACTVS_HBOND_DONOR>
8

> <PUBCHEM_CACTVS_ROTATABLE_BOND>
6

> <PUBCHEM_CACTVS_SUBSKEYS>
AAADceBzsYAGAAAAAAAAAAAAAAAAAAAAAAA8QAAAAAAAAAABwAAAHwAQCAAADAjBmhQ98JbIEACoAjd3dACCgCk1AqAJ2KEoZNiIaOrA2dGUJIhokALIyOcQgAAOAAAAQAAAAAAAAACAAAAAAAAAAAAAAA==

> <PUBCHEM_IUPAC_OPENEYE_NAME>
2-(2-aminoethylamino)-4-[3-(trifluoromethyl)anilino]pyrimidine-5-carboxamide;dihydrate;dihydrochloride

> <PUBCHEM_IUPAC_CAS_NAME>
2-(2-aminoethylamino)-4-[3-(trifluoromethyl)anilino]-5-pyrimidinecarboxamide;dihydrate;dihydrochloride

> <PUBCHEM_IUPAC_NAME_MARKUP>
2-(2-aminoethylamino)-4-[3-(trifluoromethyl)anilino]pyrimidine-5-carboxamide;dihydrate;dihydrochloride

> <PUBCHEM_IUPAC_NAME>
2-(2-aminoethylamino)-4-[3-(trifluoromethyl)anilino]pyrimidine-5-carboxamide;dihydrate;dihydrochloride

> <PUBCHEM_IUPAC_SYSTEMATIC_NAME>
2-(2-azanylethylamino)-4-[[3-(trifluoromethyl)phenyl]amino]pyrimidine-5-carboxamide;dihydrate;dihydrochloride

> <PUBCHEM_IUPAC_TRADITIONAL_NAME>
2-(2-aminoethylamino)-4-[3-(trifluoromethyl)anilino]pyrimidine-5-carboxamide;dihydrate;dihydrochloride

> <PUBCHEM_IUPAC_INCHI>
InChI=1S/C14H15F3N6O.2ClH.2H2O/c15-14(16,17)8-2-1-3-9(6-8)22-12-10(11(19)24)7-21-13(23-12)20-5-4-18;;;;/h1-3,6-7H,4-5,18H2,(H2,19,24)(H2,20,21,22,23);2*1H;2*1H2

> <PUBCHEM_IUPAC_INCHIKEY>
LCACSMNPIITJGG-UHFFFAOYSA-N

> <PUBCHEM_EXACT_MASS>
448.1004284

> <PUBCHEM_MOLECULAR_FORMULA>
C14H21Cl2F3N6O3

> <PUBCHEM_MOLECULAR_WEIGHT>
449.3

> <PUBCHEM_OPENEYE_CAN_SMILES>
C1=CC(=CC(=C1)NC2=NC(=NC=C2C(=O)N)NCCN)C(F)(F)F.O.O.Cl.Cl

> <PUBCHEM_OPENEYE_ISO_SMILES>
C1=CC(=CC(=C1)NC2=NC(=NC=C2C(=O)N)NCCN)C(F)(F)F.O.O.Cl.Cl

> <PUBCHEM_CACTVS_TPSA>
121

> <PUBCHEM_MONOISOTOPIC_WEIGHT>
448.1004284

> <PUBCHEM_TOTAL_CHARGE>
0

> <PUBCHEM_HEAVY_ATOM_COUNT>
28

> <PUBCHEM_ATOM_DEF_STEREO_COUNT>
0

> <PUBCHEM_ATOM_UDEF_STEREO_COUNT>
0

> <PUBCHEM_BOND_DEF_STEREO_COUNT>
0

> <PUBCHEM_BOND_UDEF_STEREO_COUNT>
0

> <PUBCHEM_ISOTOPIC_ATOM_COUNT>
0

> <PUBCHEM_COMPONENT_COUNT>
5

> <PUBCHEM_CACTVS_TAUTO_COUNT>
21

> <PUBCHEM_COORDINATE_TYPE>
1
5
255

> <PUBCHEM_BONDANNOTATIONS>
11  16  8
11  22  8
12  22  8
12  26  8
15  18  8
15  21  8
16  19  8
17  18  8
17  23  8
19  26  8
21  24  8
23  24  8

$$$$
907426
  -OEChem-11282412102D

 37 39  0     0  0  0  0  0  0999 V2000
    2.0000    0.4153    0.0000 O   0  0  0  0  0  0  0  0  0  0  0  0
    2.0000   -1.5847    0.0000 O   0  0  0  0  0  0  0  0  0  0  0  0
    7.1279   -0.5847    0.0000 O   0  0  0  0  0  0  0  0  0  0  0  0
    9.7690    1.9954    0.0000 O   0  0  0  0  0  0  0  0  0  0  0  0
    5.5443   -1.3895    0.0000 N   0  0  0  0  0  0  0  0  0  0  0  0
    4.5981   -0.0847    0.0000 C   0  0  0  0  0  0  0  0  0  0  0  0
    4.5981   -1.0847    0.0000 C   0  0  0  0  0  0  0  0  0  0  0  0
    5.5443    0.2200    0.0000 C   0  0  0  0  0  0  0  0  0  0  0  0
    6.1279   -0.5847    0.0000 C   0  0  0  0  0  0  0  0  0  0  0  0
    3.7320    0.4153    0.0000 C   0  0  0  0  0  0  0  0  0  0  0  0
    3.7320   -1.5847    0.0000 C   0  0  0  0  0  0  0  0  0  0  0  0
    2.8660   -0.0847    0.0000 C   0  0  0  0  0  0  0  0  0  0  0  0
    2.8660   -1.0847    0.0000 C   0  0  0  0  0  0  0  0  0  0  0  0
    5.8550    1.1705    0.0000 C   0  0  0  0  0  0  0  0  0  0  0  0
    6.8335    1.3768    0.0000 C   0  0  0  0  0  0  0  0  0  0  0  0
    7.1441    2.3273    0.0000 C   0  0  0  0  0  0  0  0  0  0  0  0
    7.5013    0.6324    0.0000 C   0  0  0  0  0  0  0  0  0  0  0  0
    8.1226    2.5335    0.0000 C   0  0  0  0  0  0  0  0  0  0  0  0
    8.4798    0.8387    0.0000 C   0  0  0  0  0  0  0  0  0  0  0  0
    8.7905    1.7892    0.0000 C   0  0  0  0  0  0  0  0  0  0  0  0
    2.0000    1.4153    0.0000 C   0  0  0  0  0  0  0  0  0  0  0  0
    2.0000   -2.5847    0.0000 C   0  0  0  0  0  0  0  0  0  0  0  0
    5.7369   -1.9788    0.0000 H   0  0  0  0  0  0  0  0  0  0  0  0
    3.7320    1.0353    0.0000 H   0  0  0  0  0  0  0  0  0  0  0  0
    3.7320   -2.2047    0.0000 H   0  0  0  0  0  0  0  0  0  0  0  0
    5.4409    1.6320    0.0000 H   0  0  0  0  0  0  0  0  0  0  0  0
    6.7301    2.7887    0.0000 H   0  0  0  0  0  0  0  0  0  0  0  0
    7.3087    0.0431    0.0000 H   0  0  0  0  0  0  0  0  0  0  0  0
    8.3152    3.1228    0.0000 H   0  0  0  0  0  0  0  0  0  0  0  0
    8.8939    0.3772    0.0000 H   0  0  0  0  0  0  0  0  0  0  0  0
    2.6200    1.4153    0.0000 H   0  0  0  0  0  0  0  0  0  0  0  0
    2.0000    2.0353    0.0000 H   0  0  0  0  0  0  0  0  0  0  0  0
    1.3800    1.4153    0.0000 H   0  0  0  0  0  0  0  0  0  0  0  0
    1.3800   -2.5847    0.0000 H   0  0  0  0  0  0  0  0  0  0  0  0
    2.0000   -3.2047    0.0000 H   0  0  0  0  0  0  0  0  0  0  0  0
    2.6200   -2.5847    0.0000 H   0  0  0  0  0  0  0  0  0  0  0  0
    9.9616    2.5847    0.0000 H   0  0  0  0  0  0  0  0  0  0  0  0
  1 12  1  0  0  0  0
  1 21  1  0  0  0  0
  2 13  1  0  0  0  0
  2 22  1  0  0  0  0
  3  9  2  0  0  0  0
  4 20  1  0  0  0  0
  4 37  1  0  0  0  0
  5  7  1  0  0  0  0
  5  9  1  0  0  0  0
  5 23  1  0  0  0  0
  6  7  1  0  0  0  0
  6  8  1  0  0  0  0
  6 10  2  0  0  0  0
  7 11  2  0  0  0  0
  8  9  1  0  0  0  0
  8 14  2  3  0  0  0
 10 12  1  0  0  0  0
 10 24  1  0  0  0  0
 11 13  1  0  0  0  0
 11 25  1  0  0  0  0
 12 13  2  0  0  0  0
 14 15  1  0  0  0  0
 14 26  1  0  0  0  0
 15 16  2  0  0  0  0
 15 17  1  0  0  0  0
 16 18  1  0  0  0  0
 16 27  1  0  0  0  0
 17 19  2  0  0  0  0
 17 28  1  0  0  0  0
 18 20  2  0  0  0  0
 18 29  1  0  0  0  0
 19 20  1  0  0  0  0
 19 30  1  0  0  0  0
 21 31  1  0  0  0  0
 21 32  1  0  0  0  0
 21 33  1  0  0  0  0
 22 34  1  0  0  0  0
 22 35  1  0  0  0  0
 22 36  1  0  0  0  0
M  END
> <PUBCHEM_COMPOUND_CID>
907426

> <PUBCHEM_COMPOUND_CANONICALIZED>
1

> <PUBCHEM_CACTVS_COMPLEXITY>
442

> <PUBCHEM_CACTVS_HBOND_ACCEPTOR>
4

> <PUBCHEM_CACTVS_HBOND_DONOR>
2

> <PUBCHEM_CACTVS_ROTATABLE_BOND>
3

> <PUBCHEM_CACTVS_SUBSKEYS>
AAADccB6OAAAAAAAAAAAAAAAAAAAAWAAAAAwYAAAAAAAAFgBQAAAHgAQCAAADAyBmAIyxoLABgCIAiVSUACCCAAhIgAIiAEG7MgNJjLGtZuEcCpm1BnK+Ye83LPOIEABAgACQABAgAIEAASAAAAAAAAAAA==

> <PUBCHEM_IUPAC_OPENEYE_NAME>
3-[(4-hydroxyphenyl)methylene]-5,6-dimethoxy-indolin-2-one

> <PUBCHEM_IUPAC_CAS_NAME>
3-[(4-hydroxyphenyl)methylidene]-5,6-dimethoxy-1H-indol-2-one

> <PUBCHEM_IUPAC_NAME_MARKUP>
3-[(4-hydroxyphenyl)methylidene]-5,6-dimethoxy-1<I>H</I>-indol-2-one

> <PUBCHEM_IUPAC_NAME>
3-[(4-hydroxyphenyl)methylidene]-5,6-dimethoxy-1H-indol-2-one

> <PUBCHEM_IUPAC_SYSTEMATIC_NAME>
3-[(4-hydroxyphenyl)methylidene]-5,6-dimethoxy-1H-indol-2-one

> <PUBCHEM_IUPAC_TRADITIONAL_NAME>
3-(4-hydroxybenzylidene)-5,6-dimethoxy-oxindole

> <PUBCHEM_IUPAC_INCHI>
InChI=1S/C17H15NO4/c1-21-15-8-12-13(7-10-3-5-11(19)6-4-10)17(20)18-14(12)9-16(15)22-2/h3-9,19H,1-2H3,(H,18,20)

> <PUBCHEM_IUPAC_INCHIKEY>
JGSMCYNBVCGIHC-UHFFFAOYSA-N

> <PUBCHEM_XLOGP3_AA>
2.5

> <PUBCHEM_EXACT_MASS>
297.10010796

> <PUBCHEM_MOLECULAR_FORMULA>
C17H15NO4

> <PUBCHEM_MOLECULAR_WEIGHT>
297.30

> <PUBCHEM_OPENEYE_CAN_SMILES>
COC1=C(C=C2C(=C1)C(=CC3=CC=C(C=C3)O)C(=O)N2)OC

> <PUBCHEM_OPENEYE_ISO_SMILES>
COC1=C(C=C2C(=C1)C(=CC3=CC=C(C=C3)O)C(=O)N2)OC

> <PUBCHEM_CACTVS_TPSA>
67.8

> <PUBCHEM_MONOISOTOPIC_WEIGHT>
297.10010796

> <PUBCHEM_TOTAL_CHARGE>
0

> <PUBCHEM_HEAVY_ATOM_COUNT>
22

> <PUBCHEM_ATOM_DEF_STEREO_COUNT>
0

> <PUBCHEM_ATOM_UDEF_STEREO_COUNT>
0

> <PUBCHEM_BOND_DEF_STEREO_COUNT>
0

> <PUBCHEM_BOND_UDEF_STEREO_COUNT>
1

> <PUBCHEM_ISOTOPIC_ATOM_COUNT>
0

> <PUBCHEM_COMPONENT_COUNT>
1

> <PUBCHEM_CACTVS_TAUTO_COUNT>
-1

> <PUBCHEM_COORDINATE_TYPE>
1
5
255

> <PUBCHEM_BONDANNOTATIONS>
10  12  8
11  13  8
12  13  8
15  16  8
15  17  8
16  18  8
17  19  8
18  20  8
19  20  8
6  10  8
6  7  8
7  11  8
8  14  1

$$$$
53735577
  -OEChem-11282412102D

 41 43  0     0  0  0  0  0  0999 V2000
    2.0000   -0.8000    0.0000 Br  0  0  0  0  0  0  0  0  0  0  0  0
    7.1279   -1.8000    0.0000 O   0  0  0  0  0  0  0  0  0  0  0  0
   11.5325    2.0328    0.0000 O   0  0  0  0  0  0  0  0  0  0  0  0
   10.2474    3.1940    0.0000 O   0  0  0  0  0  0  0  0  0  0  0  0
    7.5754   -0.5089    0.0000 N   0  0  0  0  0  0  0  0  0  0  0  0
    5.5443   -2.6047    0.0000 N   0  0  0  0  0  0  0  0  0  0  0  0
    8.2361    0.9681    0.0000 C   0  0  0  0  0  0  0  0  0  0  0  0
    7.2418    1.0743    0.0000 C   0  0  0  0  0  0  0  0  0  0  0  0
    6.8335    0.1615    0.0000 C   0  0  0  0  0  0  0  0  0  0  0  0
    8.4423   -0.0104    0.0000 C   0  0  0  0  0  0  0  0  0  0  0  0
    8.9065    1.7101    0.0000 C   0  0  0  0  0  0  0  0  0  0  0  0
    5.8550   -0.0447    0.0000 C   0  0  0  0  0  0  0  0  0  0  0  0
    5.5443   -0.9952    0.0000 C   0  0  0  0  0  0  0  0  0  0  0  0
    4.5981   -1.3000    0.0000 C   0  0  0  0  0  0  0  0  0  0  0  0
    9.8843    1.5005    0.0000 C   0  0  0  0  0  0  0  0  0  0  0  0
    6.7433    1.9412    0.0000 C   0  0  0  0  0  0  0  0  0  0  0  0
    9.3552   -0.4187    0.0000 C   0  0  0  0  0  0  0  0  0  0  0  0
    4.5981   -2.3000    0.0000 C   0  0  0  0  0  0  0  0  0  0  0  0
    6.1279   -1.8000    0.0000 C   0  0  0  0  0  0  0  0  0  0  0  0
    3.7320   -0.8000    0.0000 C   0  0  0  0  0  0  0  0  0  0  0  0
    3.7320   -2.8000    0.0000 C   0  0  0  0  0  0  0  0  0  0  0  0
   10.5547    2.2424    0.0000 C   0  0  0  0  0  0  0  0  0  0  0  0
    2.8660   -1.3000    0.0000 C   0  0  0  0  0  0  0  0  0  0  0  0
    2.8660   -2.3000    0.0000 C   0  0  0  0  0  0  0  0  0  0  0  0
    9.1398    2.2845    0.0000 H   0  0  0  0  0  0  0  0  0  0  0  0
    8.3813    2.0395    0.0000 H   0  0  0  0  0  0  0  0  0  0  0  0
    7.5096   -1.1254    0.0000 H   0  0  0  0  0  0  0  0  0  0  0  0
    5.4409    0.4167    0.0000 H   0  0  0  0  0  0  0  0  0  0  0  0
    9.6511    0.9260    0.0000 H   0  0  0  0  0  0  0  0  0  0  0  0
   10.4095    1.1710    0.0000 H   0  0  0  0  0  0  0  0  0  0  0  0
    7.2808    2.2503    0.0000 H   0  0  0  0  0  0  0  0  0  0  0  0
    6.4342    2.4787    0.0000 H   0  0  0  0  0  0  0  0  0  0  0  0
    6.2058    1.6322    0.0000 H   0  0  0  0  0  0  0  0  0  0  0  0
    9.1020   -0.9847    0.0000 H   0  0  0  0  0  0  0  0  0  0  0  0
    9.9211   -0.6719    0.0000 H   0  0  0  0  0  0  0  0  0  0  0  0
    9.6083    0.1472    0.0000 H   0  0  0  0  0  0  0  0  0  0  0  0
    5.7369   -3.1940    0.0000 H   0  0  0  0  0  0  0  0  0  0  0  0
    3.7320   -0.1800    0.0000 H   0  0  0  0  0  0  0  0  0  0  0  0
    3.7320   -3.4200    0.0000 H   0  0  0  0  0  0  0  0  0  0  0  0
    2.3291   -2.6100    0.0000 H   0  0  0  0  0  0  0  0  0  0  0  0
   11.9482    2.4929    0.0000 H   0  0  0  0  0  0  0  0  0  0  0  0
  1 23  1  0  0  0  0
  2 19  2  0  0  0  0
  3 22  1  0  0  0  0
  3 41  1  0  0  0  0
  4 22  2  0  0  0  0
  5  9  1  0  0  0  0
  5 10  1  0  0  0  0
  5 27  1  0  0  0  0
  6 18  1  0  0  0  0
  6 19  1  0  0  0  0
  6 37  1  0  0  0  0
  7  8  1  0  0  0  0
  7 10  2  0  0  0  0
  7 11  1  0  0  0  0
  8  9  2  0  0  0  0
  8 16  1  0  0  0  0
  9 12  1  0  0  0  0
 10 17  1  0  0  0  0
 11 15  1  0  0  0  0
 11 25  1  0  0  0  0
 11 26  1  0  0  0  0
 12 13  2  3  0  0  0
 12 28  1  0  0  0  0
 13 14  1  0  0  0  0
 13 19  1  0  0  0  0
 14 18  2  0  0  0  0
 14 20  1  0  0  0  0
 15 22  1  0  0  0  0
 15 29  1  0  0  0  0
 15 30  1  0  0  0  0
 16 31  1  0  0  0  0
 16 32  1  0  0  0  0
 16 33  1  0  0  0  0
 17 34  1  0  0  0  0
 17 35  1  0  0  0  0
 17 36  1  0  0  0  0
 18 21  1  0  0  0  0
 20 23  2  0  0  0  0
 20 38  1  0  0  0  0
 21 24  2  0  0  0  0
 21 39  1  0  0  0  0
 23 24  1  0  0  0  0
 24 40  1  0  0  0  0
M  END
> <PUBCHEM_COMPOUND_CID>
53735577

> <PUBCHEM_COMPOUND_CANONICALIZED>
1

> <PUBCHEM_CACTVS_COMPLEXITY>
550

> <PUBCHEM_CACTVS_HBOND_ACCEPTOR>
3

> <PUBCHEM_CACTVS_HBOND_DONOR>
3

> <PUBCHEM_CACTVS_ROTATABLE_BOND>
4

> <PUBCHEM_CACTVS_SUBSKEYS>
AAADceB7MAAAEAAAAAAAAAAAAAAAAWLAAAAwAAAAAAAAAFgBwAAAHgBQCAABrAiBngAyyJLJkgCoAyXyXACCgCAhAiQImSEwZPgIIHLAlZGEYAhklADIy5ec2bOegAAgEAACAAAAAEAgAAQAAAAAAAAAAA==

> <PUBCHEM_IUPAC_OPENEYE_NAME>
3-[5-[(5-bromo-2-oxo-indolin-3-ylidene)methyl]-2,4-dimethyl-1H-pyrrol-3-yl]propanoic acid

> <PUBCHEM_IUPAC_CAS_NAME>
3-[5-[(5-bromo-2-oxo-1H-indol-3-ylidene)methyl]-2,4-dimethyl-1H-pyrrol-3-yl]propanoic acid

> <PUBCHEM_IUPAC_NAME_MARKUP>
3-[5-[(5-bromo-2-oxo-1<I>H</I>-indol-3-ylidene)methyl]-2,4-dimethyl-1<I>H</I>-pyrrol-3-yl]propanoic acid

> <PUBCHEM_IUPAC_NAME>
3-[5-[(5-bromo-2-oxo-1H-indol-3-ylidene)methyl]-2,4-dimethyl-1H-pyrrol-3-yl]propanoic acid

> <PUBCHEM_IUPAC_SYSTEMATIC_NAME>
3-[5-[(5-bromanyl-2-oxidanylidene-1H-indol-3-ylidene)methyl]-2,4-dimethyl-1H-pyrrol-3-yl]propanoic acid

> <PUBCHEM_IUPAC_TRADITIONAL_NAME>
3-[5-[(5-bromo-2-keto-indolin-3-ylidene)methyl]-2,4-dimethyl-1H-pyrrol-3-yl]propionic acid

> <PUBCHEM_IUPAC_INCHI>
InChI=1S/C18H17BrN2O3/c1-9-12(4-6-17(22)23)10(2)20-16(9)8-14-13-7-11(19)3-5-15(13)21-18(14)24/h3,5,7-8,20H,4,6H2,1-2H3,(H,21,24)(H,22,23)

> <PUBCHEM_IUPAC_INCHIKEY>
CQXPYMNBBOWLME-UHFFFAOYSA-N

> <PUBCHEM_XLOGP3_AA>
2.9

> <PUBCHEM_EXACT_MASS>
388.04225

> <PUBCHEM_MOLECULAR_FORMULA>
C18H17BrN2O3

> <PUBCHEM_MOLECULAR_WEIGHT>
389.2

> <PUBCHEM_OPENEYE_CAN_SMILES>
CC1=C(NC(=C1CCC(=O)O)C)C=C2C3=C(C=CC(=C3)Br)NC2=O

> <PUBCHEM_OPENEYE_ISO_SMILES>
CC1=C(NC(=C1CCC(=O)O)C)C=C2C3=C(C=CC(=C3)Br)NC2=O

> <PUBCHEM_CACTVS_TPSA>
82.2

> <PUBCHEM_MONOISOTOPIC_WEIGHT>
388.04225

> <PUBCHEM_TOTAL_CHARGE>
0

> <PUBCHEM_HEAVY_ATOM_COUNT>
24

> <PUBCHEM_ATOM_DEF_STEREO_COUNT>
0

> <PUBCHEM_ATOM_UDEF_STEREO_COUNT>
0

> <PUBCHEM_BOND_DEF_STEREO_COUNT>
0

> <PUBCHEM_BOND_UDEF_STEREO_COUNT>
1

> <PUBCHEM_ISOTOPIC_ATOM_COUNT>
0

> <PUBCHEM_COMPONENT_COUNT>
1

> <PUBCHEM_CACTVS_TAUTO_COUNT>
-1

> <PUBCHEM_COORDINATE_TYPE>
1
5
255

> <PUBCHEM_BONDANNOTATIONS>
12  13  1
14  18  8
14  20  8
18  21  8
20  23  8
21  24  8
23  24  8
5  10  8
5  9  8
7  10  8
7  8  8
8  9  8

$$$$
92136143
  -OEChem-11282412102D

 58 65  0     1  0  0  0  0  0999 V2000
    7.5253    2.3172    0.0000 O   0  0  0  0  0  0  0  0  0  0  0  0
   10.4201   -1.5414    0.0000 O   0  0  0  0  0  0  0  0  0  0  0  0
    2.2501    0.6180    0.0000 O   0  0  0  0  0  0  0  0  0  0  0  0
    6.9273   -0.6474    0.0000 N   0  0  0  0  0  0  0  0  0  0  0  0
    6.2433    1.2320    0.0000 N   0  0  0  0  0  0  0  0  0  0  0  0
    9.2975   -1.1347    0.0000 N   0  0  0  0  0  0  0  0  0  0  0  0
   11.1246    0.0409    0.0000 N   0  0  0  0  0  0  0  0  0  0  0  0
    2.5826   -1.1645    0.0000 N   0  0  0  0  0  0  0  0  0  0  0  0
    8.0031    0.3687    0.0000 C   0  0  1  0  0  0  0  0  0  0  0  0
    9.4020   -0.1401    0.0000 C   0  0  1  0  0  0  0  0  0  0  0  0
    8.2619    1.3346    0.0000 C   0  0  2  0  0  0  0  0  0  0  0  0
    9.6609    0.8258    0.0000 C   0  0  0  0  0  0  0  0  0  0  0  0
    5.9425   -0.4737    0.0000 C   0  0  0  0  0  0  0  0  0  0  0  0
    5.6005    0.4660    0.0000 C   0  0  0  0  0  0  0  0  0  0  0  0
    5.2853   -1.2819    0.0000 C   0  0  0  0  0  0  0  0  0  0  0  0
    7.7443   -0.5972    0.0000 C   0  0  0  0  0  0  0  0  0  0  0  0
    4.5776    0.6626    0.0000 C   0  0  0  0  0  0  0  0  0  0  0  0
    6.9003   -1.6408    0.0000 C   0  0  0  0  0  0  0  0  0  0  0  0
    5.5840    1.9757    0.0000 C   0  0  0  0  0  0  0  0  0  0  0  0
   10.3156   -0.5469    0.0000 C   0  0  0  0  0  0  0  0  0  0  0  0
    5.9733   -1.9990    0.0000 C   0  0  0  0  0  0  0  0  0  0  0  0
    4.2582   -1.1089    0.0000 C   0  0  0  0  0  0  0  0  0  0  0  0
    3.9019   -0.1301    0.0000 C   0  0  0  0  0  0  0  0  0  0  0  0
    4.6436    1.6543    0.0000 C   0  0  0  0  0  0  0  0  0  0  0  0
    3.4406   -1.7443    0.0000 C   0  0  0  0  0  0  0  0  0  0  0  0
    7.7162   -2.2780    0.0000 C   0  0  0  0  0  0  0  0  0  0  0  0
    2.8672   -0.1689    0.0000 C   0  0  0  0  0  0  0  0  0  0  0  0
    5.7995    2.9882    0.0000 C   0  0  0  0  0  0  0  0  0  0  0  0
    5.7979   -3.0193    0.0000 C   0  0  0  0  0  0  0  0  0  0  0  0
    3.8535    2.3231    0.0000 C   0  0  0  0  0  0  0  0  0  0  0  0
    7.5644   -3.3020    0.0000 C   0  0  0  0  0  0  0  0  0  0  0  0
    6.5988   -3.6751    0.0000 C   0  0  0  0  0  0  0  0  0  0  0  0
    5.0250    3.6751    0.0000 C   0  0  0  0  0  0  0  0  0  0  0  0
    4.0454    3.3403    0.0000 C   0  0  0  0  0  0  0  0  0  0  0  0
   12.0381   -0.3658    0.0000 C   0  0  0  0  0  0  0  0  0  0  0  0
    8.4819    2.1556    0.0000 H   0  0  0  0  0  0  0  0  0  0  0  0
   10.2548    0.6480    0.0000 H   0  0  0  0  0  0  0  0  0  0  0  0
    9.8558    1.4143    0.0000 H   0  0  0  0  0  0  0  0  0  0  0  0
    7.1454   -0.4368    0.0000 H   0  0  0  0  0  0  0  0  0  0  0  0
    7.5838   -1.1961    0.0000 H   0  0  0  0  0  0  0  0  0  0  0  0
    8.3432   -0.7577    0.0000 H   0  0  0  0  0  0  0  0  0  0  0  0
    8.7311   -1.3868    0.0000 H   0  0  0  0  0  0  0  0  0  0  0  0
    9.7991   -1.4991    0.0000 H   0  0  0  0  0  0  0  0  0  0  0  0
    3.0413   -2.2187    0.0000 H   0  0  0  0  0  0  0  0  0  0  0  0
    3.8703   -2.1912    0.0000 H   0  0  0  0  0  0  0  0  0  0  0  0
    8.2919   -2.0478    0.0000 H   0  0  0  0  0  0  0  0  0  0  0  0
    6.3884    3.1820    0.0000 H   0  0  0  0  0  0  0  0  0  0  0  0
    5.2171   -3.2360    0.0000 H   0  0  0  0  0  0  0  0  0  0  0  0
   11.0598    0.6575    0.0000 H   0  0  0  0  0  0  0  0  0  0  0  0
    3.2692    2.1157    0.0000 H   0  0  0  0  0  0  0  0  0  0  0  0
    2.0000   -1.3766    0.0000 H   0  0  0  0  0  0  0  0  0  0  0  0
    8.0486   -3.6892    0.0000 H   0  0  0  0  0  0  0  0  0  0  0  0
    6.5009   -4.2873    0.0000 H   0  0  0  0  0  0  0  0  0  0  0  0
    5.1470    4.2830    0.0000 H   0  0  0  0  0  0  0  0  0  0  0  0
    3.5769    3.7463    0.0000 H   0  0  0  0  0  0  0  0  0  0  0  0
   11.7860   -0.9322    0.0000 H   0  0  0  0  0  0  0  0  0  0  0  0
   12.6045   -0.6180    0.0000 H   0  0  0  0  0  0  0  0  0  0  0  0
   12.2903    0.2006    0.0000 H   0  0  0  0  0  0  0  0  0  0  0  0
  1  9  1  0  0  0  0
  1 11  1  0  0  0  0
  2 20  2  0  0  0  0
  3 27  2  0  0  0  0
  4  9  1  0  0  0  0
  4 13  1  0  0  0  0
  4 18  1  0  0  0  0
  5 11  1  0  0  0  0
  5 14  1  0  0  0  0
  5 19  1  0  0  0  0
 10  6  1  1  0  0  0
  6 42  1  0  0  0  0
  6 43  1  0  0  0  0
  7 20  1  0  0  0  0
  7 35  1  0  0  0  0
  7 49  1  0  0  0  0
  8 25  1  0  0  0  0
  8 27  1  0  0  0  0
  8 51  1  0  0  0  0
  9 10  1  0  0  0  0
  9 16  1  1  0  0  0
 10 12  1  0  0  0  0
 10 20  1  0  0  0  0
 11 12  1  0  0  0  0
 11 36  1  6  0  0  0
 12 37  1  0  0  0  0
 12 38  1  0  0  0  0
 13 14  2  0  0  0  0
 13 15  1  0  0  0  0
 14 17  1  0  0  0  0
 15 21  1  0  0  0  0
 15 22  2  0  0  0  0
 16 39  1  0  0  0  0
 16 40  1  0  0  0  0
 16 41  1  0  0  0  0
 17 23  2  0  0  0  0
 17 24  1  0  0  0  0
 18 21  1  0  0  0  0
 18 26  2  0  0  0  0
 19 24  1  0  0  0  0
 19 28  2  0  0  0  0
 21 29  2  0  0  0  0
 22 23  1  0  0  0  0
 22 25  1  0  0  0  0
 23 27  1  0  0  0  0
 24 30  2  0  0  0  0
 25 44  1  0  0  0  0
 25 45  1  0  0  0  0
 26 31  1  0  0  0  0
 26 46  1  0  0  0  0
 28 33  1  0  0  0  0
 28 47  1  0  0  0  0
 29 32  1  0  0  0  0
 29 48  1  0  0  0  0
 30 34  1  0  0  0  0
 30 50  1  0  0  0  0
 31 32  2  0  0  0  0
 31 52  1  0  0  0  0
 32 53  1  0  0  0  0
 33 34  2  0  0  0  0
 33 54  1  0  0  0  0
 34 55  1  0  0  0  0
 35 56  1  0  0  0  0
 35 57  1  0  0  0  0
 35 58  1  0  0  0  0
M  END
> <PUBCHEM_COMPOUND_CID>
92136143

> <PUBCHEM_COMPOUND_CANONICALIZED>
1

> <PUBCHEM_CACTVS_COMPLEXITY>
977

> <PUBCHEM_CACTVS_HBOND_ACCEPTOR>
4

> <PUBCHEM_CACTVS_HBOND_DONOR>
3

> <PUBCHEM_CACTVS_ROTATABLE_BOND>
1

> <PUBCHEM_CACTVS_SUBSKEYS>
AAADceB7sAAAAAAAAAAAAAAAAAAAAWLFiQAwYMAABYAWAFix/gAAHgAQAAAADIzhngYywPPMFACoAyVyVACCgCQlEiAI2KG4dNgKYP7A1ZGfIQhmtgDIyQe+icCeyAACQAASACCQAASAACQAQAAAAAAAAA==

> <PUBCHEM_IUPAC_OPENEYE_NAME>
(15R,16R,18S)-16-amino-N,15-dimethyl-3-oxo-28-oxa-4,14,19-triazaoctacyclo[12.11.2.115,18.02,6.07,27.08,13.019,26.020,25]octacosa-1,6,8,10,12,20,22,24,26-nonaene-16-carboxamide

> <PUBCHEM_IUPAC_CAS_NAME>
(15R,16R,18S)-16-amino-N,15-dimethyl-3-oxo-28-oxa-4,14,19-triazaoctacyclo[12.11.2.115,18.02,6.07,27.08,13.019,26.020,25]octacosa-1,6,8,10,12,20,22,24,26-nonaene-16-carboxamide

> <PUBCHEM_IUPAC_NAME_MARKUP>
(15<I>R</I>,16<I>R</I>,18<I>S</I>)-16-amino-<I>N</I>,15-dimethyl-3-oxo-28-oxa-4,14,19-triazaoctacyclo[12.11.2.1<SUP>15,18</SUP>.0<SUP>2,6</SUP>.0<SUP>7,27</SUP>.0<SUP>8,13</SUP>.0<SUP>19,26</SUP>.0<SUP>20,25</SUP>]octacosa-1,6,8,10,12,20,22,24,26-nonaene-16-carboxamide

> <PUBCHEM_IUPAC_NAME>
(15R,16R,18S)-16-amino-N,15-dimethyl-3-oxo-28-oxa-4,14,19-triazaoctacyclo[12.11.2.115,18.02,6.07,27.08,13.019,26.020,25]octacosa-1,6,8,10,12,20,22,24,26-nonaene-16-carboxamide

> <PUBCHEM_IUPAC_SYSTEMATIC_NAME>
(15R,16R,18S)-16-azanyl-N,15-dimethyl-3-oxidanylidene-28-oxa-4,14,19-triazaoctacyclo[12.11.2.115,18.02,6.07,27.08,13.019,26.020,25]octacosa-1,6,8,10,12,20,22,24,26-nonaene-16-carboxamide

> <PUBCHEM_IUPAC_TRADITIONAL_NAME>
(15R,16R,18S)-16-amino-3-keto-N,15-dimethyl-28-oxa-4,14,19-triazaoctacyclo[12.11.2.115,18.02,6.07,27.08,13.019,26.020,25]octacosa-1,6,8,10,12,20,22,24,26-nonaene-16-carboxamide

> <PUBCHEM_IUPAC_INCHI>
InChI=1S/C27H23N5O3/c1-26-27(28,25(34)29-2)11-18(35-26)31-16-9-5-3-7-13(16)20-21-15(12-30-24(21)33)19-14-8-4-6-10-17(14)32(26)23(19)22(20)31/h3-10,18H,11-12,28H2,1-2H3,(H,29,34)(H,30,33)/t18-,26+,27-/m0/s1

> <PUBCHEM_IUPAC_INCHIKEY>
DCAYZGCTSXLIHO-FYCNXDEQSA-N

> <PUBCHEM_XLOGP3_AA>
1.9

> <PUBCHEM_EXACT_MASS>
465.18008961

> <PUBCHEM_MOLECULAR_FORMULA>
C27H23N5O3

> <PUBCHEM_MOLECULAR_WEIGHT>
465.5

> <PUBCHEM_OPENEYE_CAN_SMILES>
CC12C(CC(O1)N3C4=CC=CC=C4C5=C6C(=C7C8=CC=CC=C8N2C7=C53)CNC6=O)(C(=O)NC)N

> <PUBCHEM_OPENEYE_ISO_SMILES>
C[C@]12[C@](C[C@H](O1)N3C4=CC=CC=C4C5=C6C(=C7C8=CC=CC=C8N2C7=C53)CNC6=O)(C(=O)NC)N

> <PUBCHEM_CACTVS_TPSA>
103

> <PUBCHEM_MONOISOTOPIC_WEIGHT>
465.18008961

> <PUBCHEM_TOTAL_CHARGE>
0

> <PUBCHEM_HEAVY_ATOM_COUNT>
35

> <PUBCHEM_ATOM_DEF_STEREO_COUNT>
3

> <PUBCHEM_ATOM_UDEF_STEREO_COUNT>
0

> <PUBCHEM_BOND_DEF_STEREO_COUNT>
0

> <PUBCHEM_BOND_UDEF_STEREO_COUNT>
0

> <PUBCHEM_ISOTOPIC_ATOM_COUNT>
0

> <PUBCHEM_COMPONENT_COUNT>
1

> <PUBCHEM_CACTVS_TAUTO_COUNT>
-1

> <PUBCHEM_COORDINATE_TYPE>
1
5
255

> <PUBCHEM_BONDANNOTATIONS>
11  36  6
13  14  8
13  15  8
14  17  8
15  21  8
15  22  8
17  23  8
17  24  8
18  21  8
18  26  8
19  24  8
19  28  8
21  29  8
22  23  8
24  30  8
26  31  8
28  33  8
29  32  8
30  34  8
31  32  8
33  34  8
4  13  8
4  18  8
5  14  8
5  19  8
10  6  5
9  16  5

$$$$
6398883
  -OEChem-11282412102D

 43 45  0     0  0  0  0  0  0999 V2000
    4.0981   -1.9510    0.0000 F   0  0  0  0  0  0  0  0  0  0  0  0
    3.7320   -3.3170    0.0000 F   0  0  0  0  0  0  0  0  0  0  0  0
    5.0981   -3.6830    0.0000 F   0  0  0  0  0  0  0  0  0  0  0  0
    8.0622    0.1830    0.0000 O   0  0  0  0  0  0  0  0  0  0  0  0
    5.4641    1.6830    0.0000 N   0  0  0  0  0  0  0  0  0  0  0  0
    6.3301    0.1830    0.0000 N   0  0  0  0  0  0  0  0  0  0  0  0
    2.0000    0.6830    0.0000 N   0  0  0  0  0  0  0  0  0  0  0  0
    6.3301    2.1830    0.0000 C   0  0  0  0  0  0  0  0  0  0  0  0
    7.1962    1.6830    0.0000 C   0  0  0  0  0  0  0  0  0  0  0  0
    4.5981    2.1830    0.0000 C   0  0  0  0  0  0  0  0  0  0  0  0
    7.1962    0.6830    0.0000 C   0  0  0  0  0  0  0  0  0  0  0  0
    3.7320    1.6830    0.0000 C   0  0  0  0  0  0  0  0  0  0  0  0
    6.3301   -0.8170    0.0000 C   0  0  0  0  0  0  0  0  0  0  0  0
    6.3301    3.1830    0.0000 C   0  0  0  0  0  0  0  0  0  0  0  0
    8.0622    2.1830    0.0000 C   0  0  0  0  0  0  0  0  0  0  0  0
    5.4641   -2.3170    0.0000 C   0  0  0  0  0  0  0  0  0  0  0  0
    5.4641   -1.3170    0.0000 C   0  0  0  0  0  0  0  0  0  0  0  0
    7.1962    3.6830    0.0000 C   0  0  0  0  0  0  0  0  0  0  0  0
    8.0622    3.1830    0.0000 C   0  0  0  0  0  0  0  0  0  0  0  0
    7.1962   -1.3170    0.0000 C   0  0  0  0  0  0  0  0  0  0  0  0
    6.3301   -2.8170    0.0000 C   0  0  0  0  0  0  0  0  0  0  0  0
    2.8660    2.1830    0.0000 C   0  0  0  0  0  0  0  0  0  0  0  0
    3.7320    0.6830    0.0000 C   0  0  0  0  0  0  0  0  0  0  0  0
    7.1962   -2.3170    0.0000 C   0  0  0  0  0  0  0  0  0  0  0  0
    4.5981   -2.8170    0.0000 C   0  0  0  0  0  0  0  0  0  0  0  0
    2.0000    1.6830    0.0000 C   0  0  0  0  0  0  0  0  0  0  0  0
    2.8660    0.1830    0.0000 C   0  0  0  0  0  0  0  0  0  0  0  0
    4.9966    2.6580    0.0000 H   0  0  0  0  0  0  0  0  0  0  0  0
    4.1996    2.6580    0.0000 H   0  0  0  0  0  0  0  0  0  0  0  0
    5.4641    1.0630    0.0000 H   0  0  0  0  0  0  0  0  0  0  0  0
    5.7932    3.4930    0.0000 H   0  0  0  0  0  0  0  0  0  0  0  0
    8.5991    1.8730    0.0000 H   0  0  0  0  0  0  0  0  0  0  0  0
    5.7932    0.4930    0.0000 H   0  0  0  0  0  0  0  0  0  0  0  0
    4.9272   -1.0070    0.0000 H   0  0  0  0  0  0  0  0  0  0  0  0
    7.1962    4.3030    0.0000 H   0  0  0  0  0  0  0  0  0  0  0  0
    8.5991    3.4930    0.0000 H   0  0  0  0  0  0  0  0  0  0  0  0
    7.7331   -1.0070    0.0000 H   0  0  0  0  0  0  0  0  0  0  0  0
    6.3301   -3.4370    0.0000 H   0  0  0  0  0  0  0  0  0  0  0  0
    7.7331   -2.6270    0.0000 H   0  0  0  0  0  0  0  0  0  0  0  0
    2.8660    2.8030    0.0000 H   0  0  0  0  0  0  0  0  0  0  0  0
    4.2690    0.3730    0.0000 H   0  0  0  0  0  0  0  0  0  0  0  0
    1.4631    1.9930    0.0000 H   0  0  0  0  0  0  0  0  0  0  0  0
    2.8660   -0.4370    0.0000 H   0  0  0  0  0  0  0  0  0  0  0  0
  1 25  1  0  0  0  0
  2 25  1  0  0  0  0
  3 25  1  0  0  0  0
  4 11  2  0  0  0  0
  5  8  1  0  0  0  0
  5 10  1  0  0  0  0
  5 30  1  0  0  0  0
  6 11  1  0  0  0  0
  6 13  1  0  0  0  0
  6 33  1  0  0  0  0
  7 26  2  0  0  0  0
  7 27  1  0  0  0  0
  8  9  1  0  0  0  0
  8 14  2  0  0  0  0
  9 11  1  0  0  0  0
  9 15  2  0  0  0  0
 10 12  1  0  0  0  0
 10 28  1  0  0  0  0
 10 29  1  0  0  0  0
 12 22  2  0  0  0  0
 12 23  1  0  0  0  0
 13 17  1  0  0  0  0
 13 20  2  0  0  0  0
 14 18  1  0  0  0  0
 14 31  1  0  0  0  0
 15 19  1  0  0  0  0
 15 32  1  0  0  0  0
 16 17  2  0  0  0  0
 16 21  1  0  0  0  0
 16 25  1  0  0  0  0
 17 34  1  0  0  0  0
 18 19  2  0  0  0  0
 18 35  1  0  0  0  0
 19 36  1  0  0  0  0
 20 24  1  0  0  0  0
 20 37  1  0  0  0  0
 21 24  2  0  0  0  0
 21 38  1  0  0  0  0
 22 26  1  0  0  0  0
 22 40  1  0  0  0  0
 23 27  2  0  0  0  0
 23 41  1  0  0  0  0
 24 39  1  0  0  0  0
 26 42  1  0  0  0  0
 27 43  1  0  0  0  0
M  END
> <PUBCHEM_COMPOUND_CID>
6398883

> <PUBCHEM_COMPOUND_CANONICALIZED>
1

> <PUBCHEM_CACTVS_COMPLEXITY>
480

> <PUBCHEM_CACTVS_HBOND_ACCEPTOR>
6

> <PUBCHEM_CACTVS_HBOND_DONOR>
2

> <PUBCHEM_CACTVS_ROTATABLE_BOND>
5

> <PUBCHEM_CACTVS_SUBSKEYS>
AAADceB7IYAAAAAAAAAAAAAAAAAAAAAAAAA8YIAAAAAAAAAB0AAAHwAQAAAADAjBmhQ8wJLIEACoAjV3VACCgCA1AiAI2KE4ZNgIIHrA1ZGEIYhglADIyccYiACOAAAAQAACAAAAAACAAAQAAAAAAAAAAA==

> <PUBCHEM_IUPAC_OPENEYE_NAME>
2-(4-pyridylmethylamino)-N-[3-(trifluoromethyl)phenyl]benzamide

> <PUBCHEM_IUPAC_CAS_NAME>
2-(pyridin-4-ylmethylamino)-N-[3-(trifluoromethyl)phenyl]benzamide

> <PUBCHEM_IUPAC_NAME_MARKUP>
2-(pyridin-4-ylmethylamino)-<I>N</I>-[3-(trifluoromethyl)phenyl]benzamide

> <PUBCHEM_IUPAC_NAME>
2-(pyridin-4-ylmethylamino)-N-[3-(trifluoromethyl)phenyl]benzamide

> <PUBCHEM_IUPAC_SYSTEMATIC_NAME>
2-(pyridin-4-ylmethylamino)-N-[3-(trifluoromethyl)phenyl]benzamide

> <PUBCHEM_IUPAC_TRADITIONAL_NAME>
2-(4-pyridylmethylamino)-N-[3-(trifluoromethyl)phenyl]benzamide

> <PUBCHEM_IUPAC_INCHI>
InChI=1S/C20H16F3N3O/c21-20(22,23)15-4-3-5-16(12-15)26-19(27)17-6-1-2-7-18(17)25-13-14-8-10-24-11-9-14/h1-12,25H,13H2,(H,26,27)

> <PUBCHEM_IUPAC_INCHIKEY>
BLAFVGLBBOPRLP-UHFFFAOYSA-N

> <PUBCHEM_XLOGP3_AA>
4.6

> <PUBCHEM_EXACT_MASS>
371.12454663

> <PUBCHEM_MOLECULAR_FORMULA>
C20H16F3N3O

> <PUBCHEM_MOLECULAR_WEIGHT>
371.4

> <PUBCHEM_OPENEYE_CAN_SMILES>
C1=CC=C(C(=C1)C(=O)NC2=CC=CC(=C2)C(F)(F)F)NCC3=CC=NC=C3

> <PUBCHEM_OPENEYE_ISO_SMILES>
C1=CC=C(C(=C1)C(=O)NC2=CC=CC(=C2)C(F)(F)F)NCC3=CC=NC=C3

> <PUBCHEM_CACTVS_TPSA>
54

> <PUBCHEM_MONOISOTOPIC_WEIGHT>
371.12454663

> <PUBCHEM_TOTAL_CHARGE>
0

> <PUBCHEM_HEAVY_ATOM_COUNT>
27

> <PUBCHEM_ATOM_DEF_STEREO_COUNT>
0

> <PUBCHEM_ATOM_UDEF_STEREO_COUNT>
0

> <PUBCHEM_BOND_DEF_STEREO_COUNT>
0

> <PUBCHEM_BOND_UDEF_STEREO_COUNT>
0

> <PUBCHEM_ISOTOPIC_ATOM_COUNT>
0

> <PUBCHEM_COMPONENT_COUNT>
1

> <PUBCHEM_CACTVS_TAUTO_COUNT>
-1

> <PUBCHEM_COORDINATE_TYPE>
1
5
255

> <PUBCHEM_BONDANNOTATIONS>
12  22  8
12  23  8
13  17  8
13  20  8
14  18  8
15  19  8
16  17  8
16  21  8
18  19  8
20  24  8
21  24  8
22  26  8
23  27  8
7  26  8
7  27  8
8  14  8
8  9  8
9  15  8

$$$$
67259771
  -OEChem-11282412102D

 78 84  0     0  0  0  0  0  0999 V2000
    7.5604    4.6545    0.0000 O   0  0  0  0  0  0  0  0  0  0  0  0
    9.5026    0.3380    0.0000 O   0  0  0  0  0  0  0  0  0  0  0  0
   13.6305   -1.6620    0.0000 N   0  0  0  0  0  0  0  0  0  0  0  0
   13.0469   -2.4667    0.0000 N   0  0  0  0  0  0  0  0  0  0  0  0
    4.9355    4.9864    0.0000 N   0  0  0  0  0  0  0  0  0  0  0  0
   11.2347    0.3380    0.0000 N   0  0  0  0  0  0  0  0  0  0  0  0
    2.9785    4.5740    0.0000 N   0  0  0  0  0  0  0  0  0  0  0  0
   14.6467   -4.5740    0.0000 N   0  0  0  0  0  0  0  0  0  0  0  0
    9.5639    2.4216    0.0000 N   0  0  0  0  0  0  0  0  0  0  0  0
   10.8686    3.3678    0.0000 N   0  0  0  0  0  0  0  0  0  0  0  0
   13.3576    0.0933    0.0000 C   0  0  0  0  0  0  0  0  0  0  0  0
   14.1019    0.7611    0.0000 C   0  0  0  0  0  0  0  0  0  0  0  0
   13.1514    1.0718    0.0000 C   0  0  0  0  0  0  0  0  0  0  0  0
   13.0469   -0.8572    0.0000 C   0  0  0  0  0  0  0  0  0  0  0  0
   12.1007   -1.1620    0.0000 C   0  0  0  0  0  0  0  0  0  0  0  0
   12.1007   -2.1620    0.0000 C   0  0  0  0  0  0  0  0  0  0  0  0
   11.2347   -0.6620    0.0000 C   0  0  0  0  0  0  0  0  0  0  0  0
   13.3576   -3.4172    0.0000 C   0  0  0  0  0  0  0  0  0  0  0  0
   11.2347   -2.6620    0.0000 C   0  0  0  0  0  0  0  0  0  0  0  0
   10.3686   -1.1620    0.0000 C   0  0  0  0  0  0  0  0  0  0  0  0
   10.3686   -2.1620    0.0000 C   0  0  0  0  0  0  0  0  0  0  0  0
    4.2677    5.7307    0.0000 C   0  0  0  0  0  0  0  0  0  0  0  0
    4.6249    4.0359    0.0000 C   0  0  0  0  0  0  0  0  0  0  0  0
    3.2892    5.5245    0.0000 C   0  0  0  0  0  0  0  0  0  0  0  0
    3.6464    3.8297    0.0000 C   0  0  0  0  0  0  0  0  0  0  0  0
   14.3361   -3.6234    0.0000 C   0  0  0  0  0  0  0  0  0  0  0  0
    5.9140    5.1926    0.0000 C   0  0  0  0  0  0  0  0  0  0  0  0
   10.3686    0.8380    0.0000 C   0  0  0  0  0  0  0  0  0  0  0  0
    2.0000    4.3678    0.0000 C   0  0  0  0  0  0  0  0  0  0  0  0
    6.5819    4.4483    0.0000 C   0  0  0  0  0  0  0  0  0  0  0  0
   15.0039   -2.8791    0.0000 C   0  0  0  0  0  0  0  0  0  0  0  0
   10.3686    1.8380    0.0000 C   0  0  0  0  0  0  0  0  0  0  0  0
    9.8746    3.3722    0.0000 C   0  0  0  0  0  0  0  0  0  0  0  0
   15.6252   -4.7802    0.0000 C   0  0  0  0  0  0  0  0  0  0  0  0
   15.9824   -3.0854    0.0000 C   0  0  0  0  0  0  0  0  0  0  0  0
    8.2282    3.9102    0.0000 C   0  0  0  0  0  0  0  0  0  0  0  0
   11.1734    2.4216    0.0000 C   0  0  0  0  0  0  0  0  0  0  0  0
    9.2067    4.1165    0.0000 C   0  0  0  0  0  0  0  0  0  0  0  0
    8.5854    2.2154    0.0000 C   0  0  0  0  0  0  0  0  0  0  0  0
   16.2931   -4.0359    0.0000 C   0  0  0  0  0  0  0  0  0  0  0  0
    7.9176    2.9597    0.0000 C   0  0  0  0  0  0  0  0  0  0  0  0
   15.9359   -5.7307    0.0000 C   0  0  0  0  0  0  0  0  0  0  0  0
   13.8770   -0.2453    0.0000 H   0  0  0  0  0  0  0  0  0  0  0  0
   14.5898    0.3786    0.0000 H   0  0  0  0  0  0  0  0  0  0  0  0
   14.3939    1.3080    0.0000 H   0  0  0  0  0  0  0  0  0  0  0  0
   13.2387    1.6856    0.0000 H   0  0  0  0  0  0  0  0  0  0  0  0
   12.5317    1.0512    0.0000 H   0  0  0  0  0  0  0  0  0  0  0  0
   12.7438   -3.5046    0.0000 H   0  0  0  0  0  0  0  0  0  0  0  0
   13.3370   -4.0369    0.0000 H   0  0  0  0  0  0  0  0  0  0  0  0
   11.2347   -3.2820    0.0000 H   0  0  0  0  0  0  0  0  0  0  0  0
    9.8317   -0.8520    0.0000 H   0  0  0  0  0  0  0  0  0  0  0  0
    9.8317   -2.4720    0.0000 H   0  0  0  0  0  0  0  0  0  0  0  0
    4.7940    6.0583    0.0000 H   0  0  0  0  0  0  0  0  0  0  0  0
    4.0364    6.3060    0.0000 H   0  0  0  0  0  0  0  0  0  0  0  0
    4.6454    3.4162    0.0000 H   0  0  0  0  0  0  0  0  0  0  0  0
    5.2387    3.9485    0.0000 H   0  0  0  0  0  0  0  0  0  0  0  0
   11.7716    0.6480    0.0000 H   0  0  0  0  0  0  0  0  0  0  0  0
    3.2686    6.1442    0.0000 H   0  0  0  0  0  0  0  0  0  0  0  0
    2.6754    5.6118    0.0000 H   0  0  0  0  0  0  0  0  0  0  0  0
    3.1200    3.5020    0.0000 H   0  0  0  0  0  0  0  0  0  0  0  0
    3.8776    3.2544    0.0000 H   0  0  0  0  0  0  0  0  0  0  0  0
    6.4404    5.5203    0.0000 H   0  0  0  0  0  0  0  0  0  0  0  0
    5.6828    5.7679    0.0000 H   0  0  0  0  0  0  0  0  0  0  0  0
    1.8721    4.9744    0.0000 H   0  0  0  0  0  0  0  0  0  0  0  0
    1.3933    4.2399    0.0000 H   0  0  0  0  0  0  0  0  0  0  0  0
    2.1279    3.7611    0.0000 H   0  0  0  0  0  0  0  0  0  0  0  0
    6.0555    4.1207    0.0000 H   0  0  0  0  0  0  0  0  0  0  0  0
    6.8131    3.8731    0.0000 H   0  0  0  0  0  0  0  0  0  0  0  0
   14.8113   -2.2898    0.0000 H   0  0  0  0  0  0  0  0  0  0  0  0
   16.3965   -2.6239    0.0000 H   0  0  0  0  0  0  0  0  0  0  0  0
   11.7627    2.2290    0.0000 H   0  0  0  0  0  0  0  0  0  0  0  0
    9.3993    4.7058    0.0000 H   0  0  0  0  0  0  0  0  0  0  0  0
    8.3928    1.6261    0.0000 H   0  0  0  0  0  0  0  0  0  0  0  0
   16.8998   -4.1637    0.0000 H   0  0  0  0  0  0  0  0  0  0  0  0
    7.3109    2.8319    0.0000 H   0  0  0  0  0  0  0  0  0  0  0  0
   15.3466   -5.9233    0.0000 H   0  0  0  0  0  0  0  0  0  0  0  0
   16.1285   -6.3200    0.0000 H   0  0  0  0  0  0  0  0  0  0  0  0
   16.5252   -5.5381    0.0000 H   0  0  0  0  0  0  0  0  0  0  0  0
  1 30  1  0  0  0  0
  1 36  1  0  0  0  0
  2 28  2  0  0  0  0
  3  4  1  0  0  0  0
  3 14  2  0  0  0  0
  4 16  1  0  0  0  0
  4 18  1  0  0  0  0
  5 22  1  0  0  0  0
  5 23  1  0  0  0  0
  5 27  1  0  0  0  0
  6 17  1  0  0  0  0
  6 28  1  0  0  0  0
  6 57  1  0  0  0  0
  7 24  1  0  0  0  0
  7 25  1  0  0  0  0
  7 29  1  0  0  0  0
  8 26  1  0  0  0  0
  8 34  2  0  0  0  0
  9 32  1  0  0  0  0
  9 33  1  0  0  0  0
  9 39  1  0  0  0  0
 10 33  2  0  0  0  0
 10 37  1  0  0  0  0
 11 12  1  0  0  0  0
 11 13  1  0  0  0  0
 11 14  1  0  0  0  0
 11 43  1  0  0  0  0
 12 13  1  0  0  0  0
 12 44  1  0  0  0  0
 12 45  1  0  0  0  0
 13 46  1  0  0  0  0
 13 47  1  0  0  0  0
 14 15  1  0  0  0  0
 15 16  1  0  0  0  0
 15 17  2  0  0  0  0
 16 19  2  0  0  0  0
 17 20  1  0  0  0  0
 18 26  1  0  0  0  0
 18 48  1  0  0  0  0
 18 49  1  0  0  0  0
 19 21  1  0  0  0  0
 19 50  1  0  0  0  0
 20 21  2  0  0  0  0
 20 51  1  0  0  0  0
 21 52  1  0  0  0  0
 22 24  1  0  0  0  0
 22 53  1  0  0  0  0
 22 54  1  0  0  0  0
 23 25  1  0  0  0  0
 23 55  1  0  0  0  0
 23 56  1  0  0  0  0
 24 58  1  0  0  0  0
 24 59  1  0  0  0  0
 25 60  1  0  0  0  0
 25 61  1  0  0  0  0
 26 31  2  0  0  0  0
 27 30  1  0  0  0  0
 27 62  1  0  0  0  0
 27 63  1  0  0  0  0
 28 32  1  0  0  0  0
 29 64  1  0  0  0  0
 29 65  1  0  0  0  0
 29 66  1  0  0  0  0
 30 67  1  0  0  0  0
 30 68  1  0  0  0  0
 31 35  1  0  0  0  0
 31 69  1  0  0  0  0
 32 37  2  0  0  0  0
 33 38  1  0  0  0  0
 34 40  1  0  0  0  0
 34 42  1  0  0  0  0
 35 40  2  0  0  0  0
 35 70  1  0  0  0  0
 36 38  2  0  0  0  0
 36 41  1  0  0  0  0
 37 71  1  0  0  0  0
 38 72  1  0  0  0  0
 39 41  2  0  0  0  0
 39 73  1  0  0  0  0
 40 74  1  0  0  0  0
 41 75  1  0  0  0  0
 42 76  1  0  0  0  0
 42 77  1  0  0  0  0
 42 78  1  0  0  0  0
M  END
> <PUBCHEM_COMPOUND_CID>
67259771

> <PUBCHEM_COMPOUND_CANONICALIZED>
1

> <PUBCHEM_CACTVS_COMPLEXITY>
913

> <PUBCHEM_CACTVS_HBOND_ACCEPTOR>
7

> <PUBCHEM_CACTVS_HBOND_DONOR>
1

> <PUBCHEM_CACTVS_ROTATABLE_BOND>
9

> <PUBCHEM_CACTVS_SUBSKEYS>
AAADcfB/8AAAAAAAAAAAAAAAGAAAAWLAAAA8WLEAAAAAAFgB/gAAHgAYAAAADQzhnwY/9v/MHACqAzd3dACSjC03sqAZ2CG+fNiObOrE+fmXrKjqnArY6OcQgMAOAAAAAAQCAAAAAAAACAQAAAAAAAAAAA==

> <PUBCHEM_IUPAC_OPENEYE_NAME>
N-[3-cyclopropyl-1-[(6-methyl-2-pyridyl)methyl]indazol-4-yl]-7-[2-(4-methylpiperazin-1-yl)ethoxy]imidazo[1,2-a]pyridine-3-carboxamide

> <PUBCHEM_IUPAC_CAS_NAME>
N-[3-cyclopropyl-1-[(6-methyl-2-pyridinyl)methyl]-4-indazolyl]-7-[2-(4-methyl-1-piperazinyl)ethoxy]-3-imidazo[1,2-a]pyridinecarboxamide

> <PUBCHEM_IUPAC_NAME_MARKUP>
<I>N</I>-[3-cyclopropyl-1-[(6-methylpyridin-2-yl)methyl]indazol-4-yl]-7-[2-(4-methylpiperazin-1-yl)ethoxy]imidazo[1,2-a]pyridine-3-carboxamide

> <PUBCHEM_IUPAC_NAME>
N-[3-cyclopropyl-1-[(6-methylpyridin-2-yl)methyl]indazol-4-yl]-7-[2-(4-methylpiperazin-1-yl)ethoxy]imidazo[1,2-a]pyridine-3-carboxamide

> <PUBCHEM_IUPAC_SYSTEMATIC_NAME>
N-[3-cyclopropyl-1-[(6-methylpyridin-2-yl)methyl]indazol-4-yl]-7-[2-(4-methylpiperazin-1-yl)ethoxy]imidazo[1,2-a]pyridine-3-carboxamide

> <PUBCHEM_IUPAC_TRADITIONAL_NAME>
N-[3-cyclopropyl-1-[(6-methyl-2-pyridyl)methyl]indazol-4-yl]-7-[2-(4-methylpiperazino)ethoxy]imidazo[1,2-a]pyridine-3-carboxamide

> <PUBCHEM_IUPAC_INCHI>
InChI=1S/C32H36N8O2/c1-22-5-3-6-24(34-22)21-40-27-8-4-7-26(30(27)31(36-40)23-9-10-23)35-32(41)28-20-33-29-19-25(11-12-39(28)29)42-18-17-38-15-13-37(2)14-16-38/h3-8,11-12,19-20,23H,9-10,13-18,21H2,1-2H3,(H,35,41)

> <PUBCHEM_IUPAC_INCHIKEY>
JUPOTOIJLKDAPF-UHFFFAOYSA-N

> <PUBCHEM_XLOGP3_AA>
3.9

> <PUBCHEM_EXACT_MASS>
564.29612242

> <PUBCHEM_MOLECULAR_FORMULA>
C32H36N8O2

> <PUBCHEM_MOLECULAR_WEIGHT>
564.7

> <PUBCHEM_OPENEYE_CAN_SMILES>
CC1=NC(=CC=C1)CN2C3=CC=CC(=C3C(=N2)C4CC4)NC(=O)C5=CN=C6N5C=CC(=C6)OCCN7CCN(CC7)C

> <PUBCHEM_OPENEYE_ISO_SMILES>
CC1=NC(=CC=C1)CN2C3=CC=CC(=C3C(=N2)C4CC4)NC(=O)C5=CN=C6N5C=CC(=C6)OCCN7CCN(CC7)C

> <PUBCHEM_CACTVS_TPSA>
92.8

> <PUBCHEM_MONOISOTOPIC_WEIGHT>
564.29612242

> <PUBCHEM_TOTAL_CHARGE>
0

> <PUBCHEM_HEAVY_ATOM_COUNT>
42

> <PUBCHEM_ATOM_DEF_STEREO_COUNT>
0

> <PUBCHEM_ATOM_UDEF_STEREO_COUNT>
0

> <PUBCHEM_BOND_DEF_STEREO_COUNT>
0

> <PUBCHEM_BOND_UDEF_STEREO_COUNT>
0

> <PUBCHEM_ISOTOPIC_ATOM_COUNT>
0

> <PUBCHEM_COMPONENT_COUNT>
1

> <PUBCHEM_CACTVS_TAUTO_COUNT>
-1

> <PUBCHEM_COORDINATE_TYPE>
1
5
255

> <PUBCHEM_BONDANNOTATIONS>
10  33  8
10  37  8
14  15  8
15  16  8
15  17  8
16  19  8
17  20  8
19  21  8
20  21  8
26  31  8
3  14  8
3  4  8
31  35  8
32  37  8
33  38  8
34  40  8
35  40  8
36  38  8
36  41  8
39  41  8
4  16  8
8  26  8
8  34  8
9  32  8
9  33  8
9  39  8

$$$$
71312003
  -OEChem-11282412102D

 59 62  0     0  0  0  0  0  0999 V2000
   10.5920   -1.8789    0.0000 O   0  0  0  0  0  0  0  0  0  0  0  0
    9.4101    5.2622    0.0000 O   0  0  0  0  0  0  0  0  0  0  0  0
    7.6872    5.0841    0.0000 O   0  0  0  0  0  0  0  0  0  0  0  0
    2.8660   -2.3789    0.0000 O   0  0  0  0  0  0  0  0  0  0  0  0
    4.5981   -5.3789    0.0000 O   0  0  0  0  0  0  0  0  0  0  0  0
    7.6565    0.5179    0.0000 N   0  0  0  0  0  0  0  0  0  0  0  0
    9.0084   -2.6836    0.0000 N   0  0  0  0  0  0  0  0  0  0  0  0
    7.9957    2.1000    0.0000 C   0  0  0  0  0  0  0  0  0  0  0  0
    8.8608    1.5985    0.0000 C   0  0  0  0  0  0  0  0  0  0  0  0
    8.6512    0.6207    0.0000 C   0  0  0  0  0  0  0  0  0  0  0  0
    7.2514    1.4321    0.0000 C   0  0  0  0  0  0  0  0  0  0  0  0
    7.8928    3.0947    0.0000 C   0  0  0  0  0  0  0  0  0  0  0  0
    9.0084   -1.0741    0.0000 C   0  0  0  0  0  0  0  0  0  0  0  0
    8.0622   -1.3789    0.0000 C   0  0  0  0  0  0  0  0  0  0  0  0
    9.3191   -0.1236    0.0000 C   0  0  0  0  0  0  0  0  0  0  0  0
    8.0622   -2.3789    0.0000 C   0  0  0  0  0  0  0  0  0  0  0  0
    9.7751    2.0036    0.0000 C   0  0  0  0  0  0  0  0  0  0  0  0
    8.7029    3.6811    0.0000 C   0  0  0  0  0  0  0  0  0  0  0  0
    9.5920   -1.8789    0.0000 C   0  0  0  0  0  0  0  0  0  0  0  0
    6.2736    1.6417    0.0000 C   0  0  0  0  0  0  0  0  0  0  0  0
    7.1962   -2.8789    0.0000 C   0  0  0  0  0  0  0  0  0  0  0  0
    7.1962   -0.8789    0.0000 C   0  0  0  0  0  0  0  0  0  0  0  0
    6.3301   -2.3789    0.0000 C   0  0  0  0  0  0  0  0  0  0  0  0
    6.3301   -1.3789    0.0000 C   0  0  0  0  0  0  0  0  0  0  0  0
    5.4641   -2.8789    0.0000 C   0  0  0  0  0  0  0  0  0  0  0  0
    8.6001    4.6758    0.0000 C   0  0  0  0  0  0  0  0  0  0  0  0
    5.4641   -3.8789    0.0000 C   0  0  0  0  0  0  0  0  0  0  0  0
    4.5981   -2.3789    0.0000 C   0  0  0  0  0  0  0  0  0  0  0  0
    3.7320   -2.8789    0.0000 C   0  0  0  0  0  0  0  0  0  0  0  0
    4.5981   -4.3789    0.0000 C   0  0  0  0  0  0  0  0  0  0  0  0
    3.7320   -3.8789    0.0000 C   0  0  0  0  0  0  0  0  0  0  0  0
    2.0000   -2.8789    0.0000 C   0  0  0  0  0  0  0  0  0  0  0  0
    3.7320   -5.8789    0.0000 C   0  0  0  0  0  0  0  0  0  0  0  0
    7.6220    3.6524    0.0000 H   0  0  0  0  0  0  0  0  0  0  0  0
    7.2966    2.9248    0.0000 H   0  0  0  0  0  0  0  0  0  0  0  0
    7.3456   -0.0185    0.0000 H   0  0  0  0  0  0  0  0  0  0  0  0
    9.9257    0.0042    0.0000 H   0  0  0  0  0  0  0  0  0  0  0  0
   10.0263    1.4368    0.0000 H   0  0  0  0  0  0  0  0  0  0  0  0
   10.3419    2.2548    0.0000 H   0  0  0  0  0  0  0  0  0  0  0  0
    9.5239    2.5705    0.0000 H   0  0  0  0  0  0  0  0  0  0  0  0
    8.9737    3.1233    0.0000 H   0  0  0  0  0  0  0  0  0  0  0  0
    9.2992    3.8509    0.0000 H   0  0  0  0  0  0  0  0  0  0  0  0
    6.4035    2.2480    0.0000 H   0  0  0  0  0  0  0  0  0  0  0  0
    5.6674    1.7717    0.0000 H   0  0  0  0  0  0  0  0  0  0  0  0
    6.1436    1.0355    0.0000 H   0  0  0  0  0  0  0  0  0  0  0  0
    9.2010   -3.2729    0.0000 H   0  0  0  0  0  0  0  0  0  0  0  0
    7.1962   -3.4989    0.0000 H   0  0  0  0  0  0  0  0  0  0  0  0
    7.1962   -0.2589    0.0000 H   0  0  0  0  0  0  0  0  0  0  0  0
    5.7932   -1.0689    0.0000 H   0  0  0  0  0  0  0  0  0  0  0  0
    6.0010   -4.1889    0.0000 H   0  0  0  0  0  0  0  0  0  0  0  0
    4.5981   -1.7589    0.0000 H   0  0  0  0  0  0  0  0  0  0  0  0
    3.1951   -4.1889    0.0000 H   0  0  0  0  0  0  0  0  0  0  0  0
    9.3464    5.8789    0.0000 H   0  0  0  0  0  0  0  0  0  0  0  0
    1.6900   -2.3419    0.0000 H   0  0  0  0  0  0  0  0  0  0  0  0
    1.4631   -3.1889    0.0000 H   0  0  0  0  0  0  0  0  0  0  0  0
    2.3100   -3.4158    0.0000 H   0  0  0  0  0  0  0  0  0  0  0  0
    3.4220   -5.3419    0.0000 H   0  0  0  0  0  0  0  0  0  0  0  0
    3.1951   -6.1889    0.0000 H   0  0  0  0  0  0  0  0  0  0  0  0
    4.0420   -6.4158    0.0000 H   0  0  0  0  0  0  0  0  0  0  0  0
  1 19  2  0  0  0  0
  2 26  1  0  0  0  0
  2 53  1  0  0  0  0
  3 26  2  0  0  0  0
  4 29  1  0  0  0  0
  4 32  1  0  0  0  0
  5 30  1  0  0  0  0
  5 33  1  0  0  0  0
  6 10  1  0  0  0  0
  6 11  1  0  0  0  0
  6 36  1  0  0  0  0
  7 16  1  0  0  0  0
  7 19  1  0  0  0  0
  7 46  1  0  0  0  0
  8  9  1  0  0  0  0
  8 11  2  0  0  0  0
  8 12  1  0  0  0  0
  9 10  2  0  0  0  0
  9 17  1  0  0  0  0
 10 15  1  0  0  0  0
 11 20  1  0  0  0  0
 12 18  1  0  0  0  0
 12 34  1  0  0  0  0
 12 35  1  0  0  0  0
 13 14  1  0  0  0  0
 13 15  2  0  0  0  0
 13 19  1  0  0  0  0
 14 16  2  0  0  0  0
 14 22  1  0  0  0  0
 15 37  1  0  0  0  0
 16 21  1  0  0  0  0
 17 38  1  0  0  0  0
 17 39  1  0  0  0  0
 17 40  1  0  0  0  0
 18 26  1  0  0  0  0
 18 41  1  0  0  0  0
 18 42  1  0  0  0  0
 20 43  1  0  0  0  0
 20 44  1  0  0  0  0
 20 45  1  0  0  0  0
 21 23  2  0  0  0  0
 21 47  1  0  0  0  0
 22 24  2  0  0  0  0
 22 48  1  0  0  0  0
 23 24  1  0  0  0  0
 23 25  1  0  0  0  0
 24 49  1  0  0  0  0
 25 27  2  0  0  0  0
 25 28  1  0  0  0  0
 27 30  1  0  0  0  0
 27 50  1  0  0  0  0
 28 29  2  0  0  0  0
 28 51  1  0  0  0  0
 29 31  1  0  0  0  0
 30 31  2  0  0  0  0
 31 52  1  0  0  0  0
 32 54  1  0  0  0  0
 32 55  1  0  0  0  0
 32 56  1  0  0  0  0
 33 57  1  0  0  0  0
 33 58  1  0  0  0  0
 33 59  1  0  0  0  0
M  END
> <PUBCHEM_COMPOUND_CID>
71312003

> <PUBCHEM_COMPOUND_CANONICALIZED>
1

> <PUBCHEM_CACTVS_COMPLEXITY>
743

> <PUBCHEM_CACTVS_HBOND_ACCEPTOR>
5

> <PUBCHEM_CACTVS_HBOND_DONOR>
3

> <PUBCHEM_CACTVS_ROTATABLE_BOND>
7

> <PUBCHEM_CACTVS_SUBSKEYS>
AAADceB7OAAAAAAAAAAAAAAAAAAAAWLAAAAwYAAAAAAAAFgB0AAAHgAQCAAADAyBngIyzpLJlgCoAyXyXACCiCAhIiAImSE2bNgMJ3LEtZuEcChl1BXI6Yec+f+ewAABSAACAACAAAKQAAQAAAAAAAAAAA==

> <PUBCHEM_IUPAC_OPENEYE_NAME>
3-[5-[(E)-[6-(3,5-dimethoxyphenyl)-2-oxo-indolin-3-ylidene]methyl]-2,4-dimethyl-1H-pyrrol-3-yl]propanoic acid

> <PUBCHEM_IUPAC_CAS_NAME>
3-[5-[(E)-[6-(3,5-dimethoxyphenyl)-2-oxo-1H-indol-3-ylidene]methyl]-2,4-dimethyl-1H-pyrrol-3-yl]propanoic acid

> <PUBCHEM_IUPAC_NAME_MARKUP>
3-[5-[(<I>E</I>)-[6-(3,5-dimethoxyphenyl)-2-oxo-1<I>H</I>-indol-3-ylidene]methyl]-2,4-dimethyl-1<I>H</I>-pyrrol-3-yl]propanoic acid

> <PUBCHEM_IUPAC_NAME>
3-[5-[(E)-[6-(3,5-dimethoxyphenyl)-2-oxo-1H-indol-3-ylidene]methyl]-2,4-dimethyl-1H-pyrrol-3-yl]propanoic acid

> <PUBCHEM_IUPAC_SYSTEMATIC_NAME>
3-[5-[(E)-[6-(3,5-dimethoxyphenyl)-2-oxidanylidene-1H-indol-3-ylidene]methyl]-2,4-dimethyl-1H-pyrrol-3-yl]propanoic acid

> <PUBCHEM_IUPAC_TRADITIONAL_NAME>
3-[5-[(E)-[6-(3,5-dimethoxyphenyl)-2-keto-indolin-3-ylidene]methyl]-2,4-dimethyl-1H-pyrrol-3-yl]propionic acid

> <PUBCHEM_IUPAC_INCHI>
InChI=1S/C26H26N2O5/c1-14-20(7-8-25(29)30)15(2)27-23(14)13-22-21-6-5-16(11-24(21)28-26(22)31)17-9-18(32-3)12-19(10-17)33-4/h5-6,9-13,27H,7-8H2,1-4H3,(H,28,31)(H,29,30)/b22-13+

> <PUBCHEM_IUPAC_INCHIKEY>
ZIZSHSPAAJIYOD-LPYMAVHISA-N

> <PUBCHEM_XLOGP3_AA>
3.8

> <PUBCHEM_EXACT_MASS>
446.18417193

> <PUBCHEM_MOLECULAR_FORMULA>
C26H26N2O5

> <PUBCHEM_MOLECULAR_WEIGHT>
446.5

> <PUBCHEM_OPENEYE_CAN_SMILES>
CC1=C(NC(=C1CCC(=O)O)C)C=C2C3=C(C=C(C=C3)C4=CC(=CC(=C4)OC)OC)NC2=O

> <PUBCHEM_OPENEYE_ISO_SMILES>
CC1=C(NC(=C1CCC(=O)O)C)/C=C/2\C3=C(C=C(C=C3)C4=CC(=CC(=C4)OC)OC)NC2=O

> <PUBCHEM_CACTVS_TPSA>
101

> <PUBCHEM_MONOISOTOPIC_WEIGHT>
446.18417193

> <PUBCHEM_TOTAL_CHARGE>
0

> <PUBCHEM_HEAVY_ATOM_COUNT>
33

> <PUBCHEM_ATOM_DEF_STEREO_COUNT>
0

> <PUBCHEM_ATOM_UDEF_STEREO_COUNT>
0

> <PUBCHEM_BOND_DEF_STEREO_COUNT>
1

> <PUBCHEM_BOND_UDEF_STEREO_COUNT>
0

> <PUBCHEM_ISOTOPIC_ATOM_COUNT>
0

> <PUBCHEM_COMPONENT_COUNT>
1

> <PUBCHEM_CACTVS_TAUTO_COUNT>
-1

> <PUBCHEM_COORDINATE_TYPE>
1
5
255

> <PUBCHEM_BONDANNOTATIONS>
14  16  8
14  22  8
16  21  8
21  23  8
22  24  8
23  24  8
25  27  8
25  28  8
27  30  8
28  29  8
29  31  8
30  31  8
6  10  8
6  11  8
8  11  8
8  9  8
9  10  8

$$$$
