9911830
  -OEChem-11282412143D

 51 54  0     0  0  0  0  0  0999 V2000
    1.0111   -1.1657   -2.2722 Cl  0  0  0  0  0  0  0  0  0  0  0  0
   -1.8750    0.7449    1.4367 O   0  0  0  0  0  0  0  0  0  0  0  0
   -5.8120   -2.4355    1.0038 O   0  0  0  0  0  0  0  0  0  0  0  0
   -7.5387   -1.2076   -0.7945 O   0  0  0  0  0  0  0  0  0  0  0  0
    8.7625    0.1157    0.7152 O   0  0  0  0  0  0  0  0  0  0  0  0
    4.5749    0.5296    1.3361 O   0  0  0  0  0  0  0  0  0  0  0  0
   -4.5450    2.4609   -1.2320 N   0  0  0  0  0  0  0  0  0  0  0  0
    3.2519   -0.3023   -0.4086 N   0  0  0  0  0  0  0  0  0  0  0  0
    5.5503   -0.4345   -0.5583 N   0  0  0  0  0  0  0  0  0  0  0  0
    7.3812    0.2090    0.8343 N   0  0  0  0  0  0  0  0  0  0  0  0
   -3.9667    0.6388    0.2352 C   0  0  0  0  0  0  0  0  0  0  0  0
   -4.8374    1.2688   -0.6783 C   0  0  0  0  0  0  0  0  0  0  0  0
   -2.7691    1.2896    0.5614 C   0  0  0  0  0  0  0  0  0  0  0  0
   -4.3037   -0.6057    0.7941 C   0  0  0  0  0  0  0  0  0  0  0  0
   -5.4999   -1.2301    0.4527 C   0  0  0  0  0  0  0  0  0  0  0  0
   -6.0269    0.6219   -1.0019 C   0  0  0  0  0  0  0  0  0  0  0  0
   -6.3623   -0.6153   -0.4464 C   0  0  0  0  0  0  0  0  0  0  0  0
   -2.4651    2.5180   -0.0077 C   0  0  0  0  0  0  0  0  0  0  0  0
   -0.6006    0.4810    0.9684 C   0  0  0  0  0  0  0  0  0  0  0  0
   -3.3790    3.0558   -0.8909 C   0  0  0  0  0  0  0  0  0  0  0  0
    1.9501   -0.0497    0.0345 C   0  0  0  0  0  0  0  0  0  0  0  0
   -0.4461   -0.1331   -0.2622 C   0  0  0  0  0  0  0  0  0  0  0  0
    0.4899    0.8361    1.7434 C   0  0  0  0  0  0  0  0  0  0  0  0
    0.8394   -0.4004   -0.7330 C   0  0  0  0  0  0  0  0  0  0  0  0
    1.7753    0.5685    1.2725 C   0  0  0  0  0  0  0  0  0  0  0  0
    4.4751   -0.0118    0.2396 C   0  0  0  0  0  0  0  0  0  0  0  0
   -5.3786   -3.6006    0.3041 C   0  0  0  0  0  0  0  0  0  0  0  0
    6.9339   -0.3317   -0.2807 C   0  0  0  0  0  0  0  0  0  0  0  0
   -8.6806   -0.8987    0.0022 C   0  0  0  0  0  0  0  0  0  0  0  0
    7.9205   -0.7832   -1.1435 C   0  0  0  0  0  0  0  0  0  0  0  0
    9.0713   -0.4768   -0.4666 C   0  0  0  0  0  0  0  0  0  0  0  0
   10.4993   -0.6561   -0.7572 C   0  0  0  0  0  0  0  0  0  0  0  0
   -3.6384   -1.0982    1.5003 H   0  0  0  0  0  0  0  0  0  0  0  0
   -6.7146    1.0888   -1.7057 H   0  0  0  0  0  0  0  0  0  0  0  0
   -1.5537    3.0557    0.2296 H   0  0  0  0  0  0  0  0  0  0  0  0
   -3.1966    4.0148   -1.3647 H   0  0  0  0  0  0  0  0  0  0  0  0
   -1.3052   -0.4279   -0.8587 H   0  0  0  0  0  0  0  0  0  0  0  0
    0.3537    1.3175    2.7073 H   0  0  0  0  0  0  0  0  0  0  0  0
    2.5718    0.8748    1.9335 H   0  0  0  0  0  0  0  0  0  0  0  0
    3.3211   -0.7541   -1.3171 H   0  0  0  0  0  0  0  0  0  0  0  0
    5.3292   -0.8705   -1.4498 H   0  0  0  0  0  0  0  0  0  0  0  0
   -4.2865   -3.6194    0.2306 H   0  0  0  0  0  0  0  0  0  0  0  0
   -5.8234   -3.6376   -0.6952 H   0  0  0  0  0  0  0  0  0  0  0  0
   -5.7068   -4.4793    0.8658 H   0  0  0  0  0  0  0  0  0  0  0  0
   -9.5360   -1.4509   -0.3963 H   0  0  0  0  0  0  0  0  0  0  0  0
   -8.5199   -1.2043    1.0409 H   0  0  0  0  0  0  0  0  0  0  0  0
   -8.9025    0.1722   -0.0447 H   0  0  0  0  0  0  0  0  0  0  0  0
    7.8331   -1.2588   -2.1091 H   0  0  0  0  0  0  0  0  0  0  0  0
   10.9724   -1.2793    0.0079 H   0  0  0  0  0  0  0  0  0  0  0  0
   10.6473   -1.1402   -1.7276 H   0  0  0  0  0  0  0  0  0  0  0  0
   11.0118    0.3106   -0.7791 H   0  0  0  0  0  0  0  0  0  0  0  0
  1 24  1  0  0  0  0
  2 13  1  0  0  0  0
  2 19  1  0  0  0  0
  3 15  1  0  0  0  0
  3 27  1  0  0  0  0
  4 17  1  0  0  0  0
  4 29  1  0  0  0  0
  5 10  1  0  0  0  0
  5 31  1  0  0  0  0
  6 26  2  0  0  0  0
  7 12  2  0  0  0  0
  7 20  1  0  0  0  0
  8 21  1  0  0  0  0
  8 26  1  0  0  0  0
  8 40  1  0  0  0  0
  9 26  1  0  0  0  0
  9 28  1  0  0  0  0
  9 41  1  0  0  0  0
 10 28  2  0  0  0  0
 11 12  1  0  0  0  0
 11 13  2  0  0  0  0
 11 14  1  0  0  0  0
 12 16  1  0  0  0  0
 13 18  1  0  0  0  0
 14 15  2  0  0  0  0
 14 33  1  0  0  0  0
 15 17  1  0  0  0  0
 16 17  2  0  0  0  0
 16 34  1  0  0  0  0
 18 20  2  0  0  0  0
 18 35  1  0  0  0  0
 19 22  2  0  0  0  0
 19 23  1  0  0  0  0
 20 36  1  0  0  0  0
 21 24  2  0  0  0  0
 21 25  1  0  0  0  0
 22 24  1  0  0  0  0
 22 37  1  0  0  0  0
 23 25  2  0  0  0  0
 23 38  1  0  0  0  0
 25 39  1  0  0  0  0
 27 42  1  0  0  0  0
 27 43  1  0  0  0  0
 27 44  1  0  0  0  0
 28 30  1  0  0  0  0
 29 45  1  0  0  0  0
 29 46  1  0  0  0  0
 29 47  1  0  0  0  0
 30 31  2  0  0  0  0
 30 48  1  0  0  0  0
 31 32  1  0  0  0  0
 32 49  1  0  0  0  0
 32 50  1  0  0  0  0
 32 51  1  0  0  0  0
M  END
> <PUBCHEM_COMPOUND_CID>
9911830

> <PUBCHEM_CONFORMER_RMSD>
1

> <PUBCHEM_CONFORMER_DIVERSEORDER>
1
71
32
35
112
89
97
6
26
36
108
82
52
80
15
17
115
104
111
94
51
63
75
30
5
73
11
37
40
55
64
113
27
87
92
10
78
50
3
83
88
13
14
58
65
60
31
77
46
110
68
67
70
121
47
59
95
123
120
24
53
117
105
99
122
130
116
106
76
29
86
56
22
131
91
21
42
124
28
74
107
38
84
132
18
79
16
9
33
109
119
90
43
34
127
98
100
12
101
57
4
41
23
81
8
103
85
19
25
126
128
96
102
66
7
2
72
114
39
125
61
48
54
62
118
69
20
45
129
44
49
93

> <PUBCHEM_MMFF94_PARTIAL_CHARGES>
41
1 -0.18
10 -0.41
12 0.31
13 0.08
14 -0.15
15 0.08
16 -0.15
17 0.08
18 -0.15
19 0.08
2 -0.17
20 0.16
21 0.12
22 -0.15
23 -0.15
24 0.18
25 -0.15
26 0.69
27 0.28
28 0.35
29 0.28
3 -0.36
30 -0.15
31 -0.04
32 0.18
33 0.15
34 0.15
35 0.15
36 0.15
37 0.15
38 0.15
39 0.15
4 -0.36
40 0.37
41 0.37
48 0.15
5 -0.02
6 -0.57
7 -0.62
8 -0.55
9 -0.49

> <PUBCHEM_EFFECTIVE_ROTOR_COUNT>
8

> <PUBCHEM_PHARMACOPHORE_FEATURES>
11
1 2 acceptor
1 3 acceptor
1 4 acceptor
1 6 acceptor
1 7 acceptor
1 8 donor
1 9 donor
5 5 10 28 30 31 rings
6 11 12 14 15 16 17 rings
6 19 21 22 23 24 25 rings
6 7 11 12 13 18 20 rings

> <PUBCHEM_HEAVY_ATOM_COUNT>
32

> <PUBCHEM_ATOM_DEF_STEREO_COUNT>
0

> <PUBCHEM_ATOM_UDEF_STEREO_COUNT>
0

> <PUBCHEM_BOND_DEF_STEREO_COUNT>
0

> <PUBCHEM_BOND_UDEF_STEREO_COUNT>
0

> <PUBCHEM_ISOTOPIC_ATOM_COUNT>
0

> <PUBCHEM_COMPONENT_COUNT>
1

> <PUBCHEM_CACTVS_TAUTO_COUNT>
5

> <PUBCHEM_CONFORMER_ID>
00973E1600000001

> <PUBCHEM_MMFF94_ENERGY>
118.719

> <PUBCHEM_FEATURE_SELFOVERLAP>
55.909

> <PUBCHEM_SHAPE_FINGERPRINT>
10076449 9 17918276454846458024
100830 39 18408886226503050462
10299344 5 13758352272323710164
10674148 151 18412546501629834537
11135926 11 16558745685371832668
11315181 36 16660370276683513577
12082328 90 18410854318062682300
12741549 16 17704355481490301025
12758862 11 18337953497132035642
14118638 360 18114460063494962402
14849402 71 13829550099576717706
14856354 85 18260548948374130695
150020 25 18413100667273095000
15021287 119 15195565723384088665
15152005 1 17836366321892166647
15183329 4 15719108067653554344
15419008 47 18272926116287409208
15461852 350 18260553316545294116
1577012 14 17458621155914624096
15849732 13 18343301462383032188
17093844 174 7925624497167916196
17686467 74 17822294634318026284
18335252 98 17988927752148523902
18603816 31 17346309449969408159
18643901 69 18412545423255302497
18681886 176 18187359956406952137
19611394 137 18342177816484434072
21150785 3 18040154011475798288
21267235 1 17203327806361873512
21307412 95 18266166401358716927
21792961 116 18059857238729579214
23522609 53 13757511240212066970
23559900 14 18335973234474278665
249057 25 17895207584173027308
3178227 256 16917067772131962258
3383291 50 17275102830402011854
395649 100 17822015345400522354
4017518 198 17312828169625969466
4169191 19 14634868630934122144
4280585 95 18334015025760833461
4339292 15 18271517689173395087
437795 160 18261383482547935720
44880568 143 18336271141848625828
4625314 4 18409728482274653476
504579 68 17385722504184580130
54039377 194 17632574967885728749
563151 97 16588577605203290689
58083652 198 15123494900636016169
58260988 114 15912749714153950013
59521270 166 18259982644567748351
6086070 43 14635157870758484556
636775 8 18411425033027161834
6376802 90 18053108328504450045
6691757 9 17095537166209958049
999808 66 17704356571477634470

> <PUBCHEM_SHAPE_MULTIPOLES>
611.14
29.3
2.3
1.4
58.5
0.21
0.12
11.87
4.63
-6.3
0.25
0.21
-0.07
2.19

> <PUBCHEM_SHAPE_SELFOVERLAP>
1331.227

> <PUBCHEM_SHAPE_VOLUME>
334.1

> <PUBCHEM_COORDINATE_TYPE>
2
5
10

$$$$
10433653
  -OEChem-11282412143D

 61 65  0     0  0  0  0  0  0999 V2000
    0.8827   -3.5011   -1.0487 F   0  0  0  0  0  0  0  0  0  0  0  0
   -4.2280    2.0251   -0.4593 O   0  0  0  0  0  0  0  0  0  0  0  0
    5.7123   -0.5896   -0.3984 N   0  0  0  0  0  0  0  0  0  0  0  0
    2.9230    1.5473    0.6275 N   0  0  0  0  0  0  0  0  0  0  0  0
   -2.2345    3.2928   -0.4432 N   0  0  0  0  0  0  0  0  0  0  0  0
   -4.2177   -0.9496   -1.0785 N   0  0  0  0  0  0  0  0  0  0  0  0
   -4.7246   -0.5492    1.0464 N   0  0  0  0  0  0  0  0  0  0  0  0
    3.2122    0.1641    0.9541 C   0  0  0  0  0  0  0  0  0  0  0  0
    3.2395   -0.6840   -0.3189 C   0  0  0  0  0  0  0  0  0  0  0  0
    4.5511    0.0642    1.6880 C   0  0  0  0  0  0  0  0  0  0  0  0
    4.4793   -0.4101   -1.1762 C   0  0  0  0  0  0  0  0  0  0  0  0
    5.7448    0.3127    0.7602 C   0  0  0  0  0  0  0  0  0  0  0  0
    6.8867   -0.3786   -1.2446 C   0  0  0  0  0  0  0  0  0  0  0  0
    1.6517    2.0184    0.3556 C   0  0  0  0  0  0  0  0  0  0  0  0
    6.9309   -1.3838   -2.3829 C   0  0  0  0  0  0  0  0  0  0  0  0
    0.5385    1.1463    0.3820 C   0  0  0  0  0  0  0  0  0  0  0  0
   -0.7161    1.6548    0.1041 C   0  0  0  0  0  0  0  0  0  0  0  0
    1.4414    3.3907    0.0439 C   0  0  0  0  0  0  0  0  0  0  0  0
   -0.8864    3.0090   -0.1983 C   0  0  0  0  0  0  0  0  0  0  0  0
   -2.0485    1.0638    0.0417 C   0  0  0  0  0  0  0  0  0  0  0  0
    0.1707    3.8971   -0.2354 C   0  0  0  0  0  0  0  0  0  0  0  0
   -3.0253    2.1461   -0.3164 C   0  0  0  0  0  0  0  0  0  0  0  0
   -2.4068   -0.2041    0.2541 C   0  0  0  0  0  0  0  0  0  0  0  0
   -3.8061   -0.5561    0.1439 C   0  0  0  0  0  0  0  0  0  0  0  0
   -1.3505   -1.1973    0.6057 C   0  0  0  0  0  0  0  0  0  0  0  0
   -0.7279   -1.8863   -0.4105 C   0  0  0  0  0  0  0  0  0  0  0  0
   -1.0382   -1.3868    1.9330 C   0  0  0  0  0  0  0  0  0  0  0  0
   -5.5495   -1.2283   -0.9526 C   0  0  0  0  0  0  0  0  0  0  0  0
   -5.8391   -0.9742    0.3674 C   0  0  0  0  0  0  0  0  0  0  0  0
    0.2599   -2.8148   -0.0817 C   0  0  0  0  0  0  0  0  0  0  0  0
   -0.0505   -2.3152    2.2617 C   0  0  0  0  0  0  0  0  0  0  0  0
   -6.3736   -1.6941   -2.0779 C   0  0  0  0  0  0  0  0  0  0  0  0
    0.5986   -3.0291    1.2544 C   0  0  0  0  0  0  0  0  0  0  0  0
    2.4627   -0.2242    1.6533 H   0  0  0  0  0  0  0  0  0  0  0  0
    2.3474   -0.5321   -0.9353 H   0  0  0  0  0  0  0  0  0  0  0  0
    3.2443   -1.7440   -0.0328 H   0  0  0  0  0  0  0  0  0  0  0  0
    4.6454   -0.9393    2.1238 H   0  0  0  0  0  0  0  0  0  0  0  0
    4.5850    0.7759    2.5221 H   0  0  0  0  0  0  0  0  0  0  0  0
    4.4269   -1.1188   -2.0089 H   0  0  0  0  0  0  0  0  0  0  0  0
    4.4248    0.6000   -1.6026 H   0  0  0  0  0  0  0  0  0  0  0  0
    5.7659    1.3623    0.4405 H   0  0  0  0  0  0  0  0  0  0  0  0
    6.6604    0.1370    1.3385 H   0  0  0  0  0  0  0  0  0  0  0  0
    3.6924    2.2017    0.5412 H   0  0  0  0  0  0  0  0  0  0  0  0
    6.9214    0.6412   -1.6480 H   0  0  0  0  0  0  0  0  0  0  0  0
    7.7930   -0.5197   -0.6426 H   0  0  0  0  0  0  0  0  0  0  0  0
    6.7589   -2.4061   -2.0288 H   0  0  0  0  0  0  0  0  0  0  0  0
    6.2093   -1.1548   -3.1727 H   0  0  0  0  0  0  0  0  0  0  0  0
    7.9220   -1.3631   -2.8501 H   0  0  0  0  0  0  0  0  0  0  0  0
    0.6945    0.1120    0.6150 H   0  0  0  0  0  0  0  0  0  0  0  0
    2.2915    4.0706    0.0208 H   0  0  0  0  0  0  0  0  0  0  0  0
    0.0286    4.9454   -0.4710 H   0  0  0  0  0  0  0  0  0  0  0  0
   -2.5780    4.2158   -0.6812 H   0  0  0  0  0  0  0  0  0  0  0  0
   -3.6658   -1.0273   -1.9240 H   0  0  0  0  0  0  0  0  0  0  0  0
   -0.9832   -1.7264   -1.4539 H   0  0  0  0  0  0  0  0  0  0  0  0
   -1.5378   -0.8357    2.7246 H   0  0  0  0  0  0  0  0  0  0  0  0
   -6.7928   -1.0743    0.8655 H   0  0  0  0  0  0  0  0  0  0  0  0
    0.2143   -2.4812    3.3017 H   0  0  0  0  0  0  0  0  0  0  0  0
   -5.9863   -2.6364   -2.4785 H   0  0  0  0  0  0  0  0  0  0  0  0
   -7.4092   -1.8619   -1.7653 H   0  0  0  0  0  0  0  0  0  0  0  0
   -6.3814   -0.9544   -2.8849 H   0  0  0  0  0  0  0  0  0  0  0  0
    1.3689   -3.7507    1.5098 H   0  0  0  0  0  0  0  0  0  0  0  0
  1 30  1  0  0  0  0
  2 22  2  0  0  0  0
  3 11  1  0  0  0  0
  3 12  1  0  0  0  0
  3 13  1  0  0  0  0
  4  8  1  0  0  0  0
  4 14  1  0  0  0  0
  4 43  1  0  0  0  0
  5 19  1  0  0  0  0
  5 22  1  0  0  0  0
  5 52  1  0  0  0  0
  6 24  1  0  0  0  0
  6 28  1  0  0  0  0
  6 53  1  0  0  0  0
  7 24  2  0  0  0  0
  7 29  1  0  0  0  0
  8  9  1  0  0  0  0
  8 10  1  0  0  0  0
  8 34  1  0  0  0  0
  9 11  1  0  0  0  0
  9 35  1  0  0  0  0
  9 36  1  0  0  0  0
 10 12  1  0  0  0  0
 10 37  1  0  0  0  0
 10 38  1  0  0  0  0
 11 39  1  0  0  0  0
 11 40  1  0  0  0  0
 12 41  1  0  0  0  0
 12 42  1  0  0  0  0
 13 15  1  0  0  0  0
 13 44  1  0  0  0  0
 13 45  1  0  0  0  0
 14 16  2  0  0  0  0
 14 18  1  0  0  0  0
 15 46  1  0  0  0  0
 15 47  1  0  0  0  0
 15 48  1  0  0  0  0
 16 17  1  0  0  0  0
 16 49  1  0  0  0  0
 17 19  2  0  0  0  0
 17 20  1  0  0  0  0
 18 21  2  0  0  0  0
 18 50  1  0  0  0  0
 19 21  1  0  0  0  0
 20 22  1  0  0  0  0
 20 23  2  0  0  0  0
 21 51  1  0  0  0  0
 23 24  1  0  0  0  0
 23 25  1  0  0  0  0
 25 26  2  0  0  0  0
 25 27  1  0  0  0  0
 26 30  1  0  0  0  0
 26 54  1  0  0  0  0
 27 31  2  0  0  0  0
 27 55  1  0  0  0  0
 28 29  2  0  0  0  0
 28 32  1  0  0  0  0
 29 56  1  0  0  0  0
 30 33  2  0  0  0  0
 31 33  1  0  0  0  0
 31 57  1  0  0  0  0
 32 58  1  0  0  0  0
 32 59  1  0  0  0  0
 32 60  1  0  0  0  0
 33 61  1  0  0  0  0
M  END
> <PUBCHEM_COMPOUND_CID>
10433653

> <PUBCHEM_CONFORMER_RMSD>
1

> <PUBCHEM_CONFORMER_DIVERSEORDER>
1
26
28
2
31
19
10
18
25
5
34
27
33
35
11
17
38
9
36
30
37
39
22
21
24
16
4
12
14
29
32
23
3
8
15
20
7
6
13

> <PUBCHEM_MMFF94_PARTIAL_CHARGES>
41
1 -0.19
11 0.27
12 0.27
13 0.27
14 0.1
16 -0.15
17 0.03
18 -0.15
19 0.12
2 -0.57
20 -0.01
21 -0.15
22 0.62
23 0.02
24 0.14
25 0.03
26 -0.15
27 -0.15
28 -0.33
29 0.08
3 -0.81
30 0.19
31 -0.15
32 0.18
33 -0.15
4 -0.87
43 0.4
49 0.15
5 -0.55
50 0.15
51 0.15
52 0.37
53 0.27
54 0.15
55 0.15
56 0.15
57 0.15
6 0.03
61 0.15
7 -0.57
8 0.37

> <PUBCHEM_EFFECTIVE_ROTOR_COUNT>
6.4

> <PUBCHEM_PHARMACOPHORE_FEATURES>
12
1 2 acceptor
1 3 cation
1 4 cation
1 4 donor
1 5 donor
1 6 donor
3 6 7 24 cation
5 5 17 19 20 22 rings
5 6 7 24 28 29 rings
6 14 16 17 18 19 21 rings
6 25 26 27 30 31 33 rings
6 3 8 9 10 11 12 rings

> <PUBCHEM_HEAVY_ATOM_COUNT>
33

> <PUBCHEM_ATOM_DEF_STEREO_COUNT>
0

> <PUBCHEM_ATOM_UDEF_STEREO_COUNT>
0

> <PUBCHEM_BOND_DEF_STEREO_COUNT>
1

> <PUBCHEM_BOND_UDEF_STEREO_COUNT>
0

> <PUBCHEM_ISOTOPIC_ATOM_COUNT>
0

> <PUBCHEM_COMPONENT_COUNT>
1

> <PUBCHEM_CACTVS_TAUTO_COUNT>
13

> <PUBCHEM_CONFORMER_ID>
009F347500000001

> <PUBCHEM_MMFF94_ENERGY>
102.4459

> <PUBCHEM_FEATURE_SELFOVERLAP>
60.985

> <PUBCHEM_SHAPE_FINGERPRINT>
10670039 82 18261398798132436950
10693767 8 18055898026191607967
1100329 8 18191297380866306819
12166972 35 17346884476811377906
12645989 146 18272377456080266446
12788726 201 18260549996419685888
13140716 1 18118968229210541299
13402501 40 18342461422287110652
1361 2 18270676588157455782
13782708 43 17846219900407010798
13911987 19 17967811652596072899
14068700 675 18060424624814836816
14117953 113 18341320163893898175
14251757 5 18261127274658169872
14725015 67 18335404781929104400
14931854 50 18186800258007381590
15420108 30 17840038347178138305
15927050 60 18051410669824764001
15950262 2 14273448163356858950
17492 54 17894346678930627594
19591789 44 18335413630062828801
20028762 73 18129935797288899239
20775438 99 17551487260948297871
20905425 154 18194678155461320619
22122407 14 14707219803024404414
23559900 14 18192429890427377888
24771750 20 16604639013538885388
3383291 50 18335699485695471026
437795 70 18341336664710258862
484989 97 17970916785176038835
5265222 85 18334307456962311012
57527358 35 16056339244754728658
59755656 215 18335412453220495631
6004065 56 18198050585441651185
6138700 20 18409448081108104802

> <PUBCHEM_SHAPE_MULTIPOLES>
641.08
14.02
4.11
1.66
8.52
2.4
-0.11
-6.16
-7.92
-1.17
-0.09
0.98
-1.34
0.67

> <PUBCHEM_SHAPE_SELFOVERLAP>
1415.234

> <PUBCHEM_SHAPE_VOLUME>
347.2

> <PUBCHEM_COORDINATE_TYPE>
2
5
10

$$$$
5329099
  -OEChem-11282412143D

 41 43  0     0  0  0  0  0  0999 V2000
    0.5405    1.2976   -1.1354 O   0  0  0  0  0  0  0  0  0  0  0  0
   -6.1483    2.3012   -0.2820 O   0  0  0  0  0  0  0  0  0  0  0  0
   -6.4984    0.4289    0.9516 O   0  0  0  0  0  0  0  0  0  0  0  0
   -0.6711   -1.7054   -0.9098 N   0  0  0  0  0  0  0  0  0  0  0  0
    2.8685    1.6712   -0.9896 N   0  0  0  0  0  0  0  0  0  0  0  0
   -2.4469   -0.8996    0.1530 C   0  0  0  0  0  0  0  0  0  0  0  0
   -1.2893   -0.5921    0.9098 C   0  0  0  0  0  0  0  0  0  0  0  0
   -0.2750   -1.1009    0.2175 C   0  0  0  0  0  0  0  0  0  0  0  0
   -2.0354   -1.5880   -0.9668 C   0  0  0  0  0  0  0  0  0  0  0  0
   -3.8398   -0.5473    0.4971 C   0  0  0  0  0  0  0  0  0  0  0  0
    1.1787   -1.1174    0.4635 C   0  0  0  0  0  0  0  0  0  0  0  0
    2.0539   -0.2037    0.0397 C   0  0  0  0  0  0  0  0  0  0  0  0
   -4.3096    0.8155   -0.0503 C   0  0  0  0  0  0  0  0  0  0  0  0
   -1.2520    0.1405    2.1929 C   0  0  0  0  0  0  0  0  0  0  0  0
    3.4973   -0.1621    0.2481 C   0  0  0  0  0  0  0  0  0  0  0  0
   -2.8014   -2.1512   -2.0950 C   0  0  0  0  0  0  0  0  0  0  0  0
    3.9415    0.9957   -0.3973 C   0  0  0  0  0  0  0  0  0  0  0  0
    1.6621    0.9991   -0.7689 C   0  0  0  0  0  0  0  0  0  0  0  0
    4.3883   -0.9898    0.9044 C   0  0  0  0  0  0  0  0  0  0  0  0
    5.2709    1.3694   -0.4138 C   0  0  0  0  0  0  0  0  0  0  0  0
   -5.7520    1.1308    0.2839 C   0  0  0  0  0  0  0  0  0  0  0  0
    5.7404   -0.6303    0.9000 C   0  0  0  0  0  0  0  0  0  0  0  0
    6.1771    0.5380    0.2473 C   0  0  0  0  0  0  0  0  0  0  0  0
   -4.5178   -1.3293    0.1295 H   0  0  0  0  0  0  0  0  0  0  0  0
   -3.9662   -0.5544    1.5877 H   0  0  0  0  0  0  0  0  0  0  0  0
   -0.0895   -2.1652   -1.5992 H   0  0  0  0  0  0  0  0  0  0  0  0
    1.5302   -1.9629    1.0510 H   0  0  0  0  0  0  0  0  0  0  0  0
   -3.6836    1.6148    0.3625 H   0  0  0  0  0  0  0  0  0  0  0  0
   -4.2069    0.8244   -1.1418 H   0  0  0  0  0  0  0  0  0  0  0  0
   -1.7533    1.1094    2.0995 H   0  0  0  0  0  0  0  0  0  0  0  0
   -1.7571   -0.4340    2.9763 H   0  0  0  0  0  0  0  0  0  0  0  0
   -0.2275    0.3313    2.5278 H   0  0  0  0  0  0  0  0  0  0  0  0
   -3.4815   -1.4019   -2.5126 H   0  0  0  0  0  0  0  0  0  0  0  0
   -2.1464   -2.4919   -2.9036 H   0  0  0  0  0  0  0  0  0  0  0  0
   -3.3978   -3.0066   -1.7615 H   0  0  0  0  0  0  0  0  0  0  0  0
    2.9692    2.5355   -1.5086 H   0  0  0  0  0  0  0  0  0  0  0  0
    4.0635   -1.8922    1.4104 H   0  0  0  0  0  0  0  0  0  0  0  0
    5.6059    2.2691   -0.9169 H   0  0  0  0  0  0  0  0  0  0  0  0
    6.4656   -1.2611    1.4076 H   0  0  0  0  0  0  0  0  0  0  0  0
    7.2333    0.7940    0.2593 H   0  0  0  0  0  0  0  0  0  0  0  0
   -7.0865    2.5051   -0.0807 H   0  0  0  0  0  0  0  0  0  0  0  0
  1 18  2  0  0  0  0
  2 21  1  0  0  0  0
  2 41  1  0  0  0  0
  3 21  2  0  0  0  0
  4  8  1  0  0  0  0
  4  9  1  0  0  0  0
  4 26  1  0  0  0  0
  5 17  1  0  0  0  0
  5 18  1  0  0  0  0
  5 36  1  0  0  0  0
  6  7  1  0  0  0  0
  6  9  2  0  0  0  0
  6 10  1  0  0  0  0
  7  8  2  0  0  0  0
  7 14  1  0  0  0  0
  8 11  1  0  0  0  0
  9 16  1  0  0  0  0
 10 13  1  0  0  0  0
 10 24  1  0  0  0  0
 10 25  1  0  0  0  0
 11 12  2  0  0  0  0
 11 27  1  0  0  0  0
 12 15  1  0  0  0  0
 12 18  1  0  0  0  0
 13 21  1  0  0  0  0
 13 28  1  0  0  0  0
 13 29  1  0  0  0  0
 14 30  1  0  0  0  0
 14 31  1  0  0  0  0
 14 32  1  0  0  0  0
 15 17  1  0  0  0  0
 15 19  2  0  0  0  0
 16 33  1  0  0  0  0
 16 34  1  0  0  0  0
 16 35  1  0  0  0  0
 17 20  2  0  0  0  0
 19 22  1  0  0  0  0
 19 37  1  0  0  0  0
 20 23  1  0  0  0  0
 20 38  1  0  0  0  0
 22 23  2  0  0  0  0
 22 39  1  0  0  0  0
 23 40  1  0  0  0  0
M  END
> <PUBCHEM_COMPOUND_CID>
5329099

> <PUBCHEM_CONFORMER_RMSD>
0.8

> <PUBCHEM_CONFORMER_DIVERSEORDER>
1
18
19
5
4
13
3
16
15
6
11
17
14
8
9
7
2
12
10

> <PUBCHEM_MMFF94_PARTIAL_CHARGES>
31
1 -0.57
10 0.18
11 -0.11
12 -0.01
13 0.06
14 0.18
15 0.03
16 0.18
17 0.12
18 0.62
19 -0.15
2 -0.65
20 -0.15
21 0.66
22 -0.15
23 -0.15
26 0.27
27 0.15
3 -0.57
36 0.37
37 0.15
38 0.15
39 0.15
4 0.03
40 0.15
41 0.5
5 -0.55
6 -0.18
7 -0.18
8 -0.2
9 -0.33

> <PUBCHEM_EFFECTIVE_ROTOR_COUNT>
4.2

> <PUBCHEM_PHARMACOPHORE_FEATURES>
10
1 1 acceptor
1 2 acceptor
1 3 acceptor
1 4 cation
1 4 donor
1 5 donor
3 2 3 21 anion
5 4 6 7 8 9 rings
5 5 12 15 17 18 rings
6 15 17 19 20 22 23 rings

> <PUBCHEM_HEAVY_ATOM_COUNT>
23

> <PUBCHEM_ATOM_DEF_STEREO_COUNT>
0

> <PUBCHEM_ATOM_UDEF_STEREO_COUNT>
0

> <PUBCHEM_BOND_DEF_STEREO_COUNT>
1

> <PUBCHEM_BOND_UDEF_STEREO_COUNT>
0

> <PUBCHEM_ISOTOPIC_ATOM_COUNT>
0

> <PUBCHEM_COMPONENT_COUNT>
1

> <PUBCHEM_CACTVS_TAUTO_COUNT>
2

> <PUBCHEM_CONFORMER_ID>
005150CB00000001

> <PUBCHEM_MMFF94_ENERGY>
58.9042

> <PUBCHEM_FEATURE_SELFOVERLAP>
50.893

> <PUBCHEM_SHAPE_FINGERPRINT>
105312 117 17703791414607329791
10906281 52 17822860909287914356
11089746 13 18201993348049794176
11578080 2 17986374788843434664
11796584 16 17561366201747594118
11963148 33 10809347766709709824
12236239 1 18412824711529644466
12293681 160 17132116806202240243
13167372 99 18334576806591853424
13533116 47 16845016693559760630
13785724 45 17829603960113257234
14251764 18 18041000665040399645
14294032 229 17988923354597683245
15142383 8 17313377899041714188
15183329 4 18335975419773472782
15238133 3 17603879878863845372
15295992 7 17749680695722361345
15301273 46 14851603259511113401
19433438 15 18411981407369497670
19489759 90 16845576417528128842
200 152 18337665425618320374
20281389 69 18335139795511236225
20511986 3 18271513273972803744
20645477 70 17894906357031982122
21033648 29 18340197609349951768
21054139 6 10735878365734548684
21267235 1 17894628112033916034
23175994 123 17167859794485036142
23402539 116 17489584593047674358
23557571 272 16414647093055012462
23559900 14 16773530948958298790
268830 7 18114451375182226204
2838139 119 18408880729335795501
300161 21 18131348635697523410
3633792 109 17702389446349272758
4325135 7 11312055448380231768
5104073 3 17822848818458994072
57724786 102 17531534299238215268
6913067 236 14117797994825545554
7226269 152 17632296778785677521
8272917 22 18261111842588046154

> <PUBCHEM_SHAPE_MULTIPOLES>
445.76
14.71
1.89
1.39
2.79
0.02
0.06
-6.89
1.83
1.62
-0.81
0.57
0.31
-1.55

> <PUBCHEM_SHAPE_SELFOVERLAP>
974.788

> <PUBCHEM_SHAPE_VOLUME>
244.7

> <PUBCHEM_COORDINATE_TYPE>
2
5
10

$$$$
9868037
  -OEChem-11282412143D

 47 50  0     0  0  0  0  0  0999 V2000
    0.0566   -4.1663   -0.5919 S   0  0  0  0  0  0  0  0  0  0  0  0
    6.0652    2.0236   -1.3860 F   0  0  0  0  0  0  0  0  0  0  0  0
    8.0090    2.3096   -0.4293 F   0  0  0  0  0  0  0  0  0  0  0  0
    6.2362    3.2283    0.4589 F   0  0  0  0  0  0  0  0  0  0  0  0
    0.2232   -0.4302    0.4591 O   0  0  0  0  0  0  0  0  0  0  0  0
    6.5123    0.9616    0.5896 O   0  0  0  0  0  0  0  0  0  0  0  0
   -2.5188   -1.4059    0.3128 N   0  0  0  0  0  0  0  0  0  0  0  0
   -5.1642    2.6263    1.5459 N   0  0  0  0  0  0  0  0  0  0  0  0
    1.8631   -1.9833   -0.0950 N   0  0  0  0  0  0  0  0  0  0  0  0
   -4.3820    0.0694    0.7763 C   0  0  0  0  0  0  0  0  0  0  0  0
   -3.9574   -1.3203    0.4181 C   0  0  0  0  0  0  0  0  0  0  0  0
   -4.6615    1.0389   -0.1962 C   0  0  0  0  0  0  0  0  0  0  0  0
   -1.8342   -2.5333   -0.0356 C   0  0  0  0  0  0  0  0  0  0  0  0
   -5.0546    2.3219    0.2389 C   0  0  0  0  0  0  0  0  0  0  0  0
   -4.4939    0.3800    2.1238 C   0  0  0  0  0  0  0  0  0  0  0  0
   -0.4674   -2.6022   -0.1324 C   0  0  0  0  0  0  0  0  0  0  0  0
   -4.5577    0.7560   -1.5687 C   0  0  0  0  0  0  0  0  0  0  0  0
   -2.4684   -3.7664   -0.3382 C   0  0  0  0  0  0  0  0  0  0  0  0
   -5.3323    3.2846   -0.7276 C   0  0  0  0  0  0  0  0  0  0  0  0
   -4.8854    1.6620    2.4528 C   0  0  0  0  0  0  0  0  0  0  0  0
   -4.8413    1.7378   -2.5136 C   0  0  0  0  0  0  0  0  0  0  0  0
    0.5167   -1.5903    0.0894 C   0  0  0  0  0  0  0  0  0  0  0  0
   -5.2291    3.0036   -2.0922 C   0  0  0  0  0  0  0  0  0  0  0  0
   -1.5535   -4.7450   -0.6592 C   0  0  0  0  0  0  0  0  0  0  0  0
    3.0515   -1.2303    0.0795 C   0  0  0  0  0  0  0  0  0  0  0  0
    2.9610    0.0885    0.4881 C   0  0  0  0  0  0  0  0  0  0  0  0
    4.2737   -1.8323   -0.1630 C   0  0  0  0  0  0  0  0  0  0  0  0
    5.3713    0.2393    0.4204 C   0  0  0  0  0  0  0  0  0  0  0  0
    4.1303    0.8293    0.6600 C   0  0  0  0  0  0  0  0  0  0  0  0
    5.4430   -1.0916    0.0089 C   0  0  0  0  0  0  0  0  0  0  0  0
    6.6885    2.1367   -0.1938 C   0  0  0  0  0  0  0  0  0  0  0  0
   -4.3010   -2.0074    1.2041 H   0  0  0  0  0  0  0  0  0  0  0  0
   -4.4550   -1.6740   -0.4912 H   0  0  0  0  0  0  0  0  0  0  0  0
   -2.0059   -0.5512    0.5200 H   0  0  0  0  0  0  0  0  0  0  0  0
   -4.2824   -0.3448    2.9024 H   0  0  0  0  0  0  0  0  0  0  0  0
   -4.2427   -0.2115   -1.9468 H   0  0  0  0  0  0  0  0  0  0  0  0
   -3.5345   -3.9547   -0.3280 H   0  0  0  0  0  0  0  0  0  0  0  0
   -5.6378    4.2841   -0.4234 H   0  0  0  0  0  0  0  0  0  0  0  0
   -4.9891    1.9629    3.4901 H   0  0  0  0  0  0  0  0  0  0  0  0
   -4.7563    1.5173   -3.5733 H   0  0  0  0  0  0  0  0  0  0  0  0
   -5.4513    3.7761   -2.8226 H   0  0  0  0  0  0  0  0  0  0  0  0
   -1.7536   -5.7722   -0.9296 H   0  0  0  0  0  0  0  0  0  0  0  0
    2.0155   -2.9452   -0.3914 H   0  0  0  0  0  0  0  0  0  0  0  0
    2.0459    0.6207    0.6965 H   0  0  0  0  0  0  0  0  0  0  0  0
    4.3402   -2.8681   -0.4837 H   0  0  0  0  0  0  0  0  0  0  0  0
    4.0619    1.8631    0.9879 H   0  0  0  0  0  0  0  0  0  0  0  0
    6.4069   -1.5565   -0.1793 H   0  0  0  0  0  0  0  0  0  0  0  0
  1 16  1  0  0  0  0
  1 24  1  0  0  0  0
  2 31  1  0  0  0  0
  3 31  1  0  0  0  0
  4 31  1  0  0  0  0
  5 22  2  0  0  0  0
  6 28  1  0  0  0  0
  6 31  1  0  0  0  0
  7 11  1  0  0  0  0
  7 13  1  0  0  0  0
  7 34  1  0  0  0  0
  8 14  1  0  0  0  0
  8 20  2  0  0  0  0
  9 22  1  0  0  0  0
  9 25  1  0  0  0  0
  9 43  1  0  0  0  0
 10 11  1  0  0  0  0
 10 12  1  0  0  0  0
 10 15  2  0  0  0  0
 11 32  1  0  0  0  0
 11 33  1  0  0  0  0
 12 14  1  0  0  0  0
 12 17  2  0  0  0  0
 13 16  2  0  0  0  0
 13 18  1  0  0  0  0
 14 19  2  0  0  0  0
 15 20  1  0  0  0  0
 15 35  1  0  0  0  0
 16 22  1  0  0  0  0
 17 21  1  0  0  0  0
 17 36  1  0  0  0  0
 18 24  2  0  0  0  0
 18 37  1  0  0  0  0
 19 23  1  0  0  0  0
 19 38  1  0  0  0  0
 20 39  1  0  0  0  0
 21 23  2  0  0  0  0
 21 40  1  0  0  0  0
 23 41  1  0  0  0  0
 24 42  1  0  0  0  0
 25 26  2  0  0  0  0
 25 27  1  0  0  0  0
 26 29  1  0  0  0  0
 26 44  1  0  0  0  0
 27 30  2  0  0  0  0
 27 45  1  0  0  0  0
 28 29  2  0  0  0  0
 28 30  1  0  0  0  0
 29 46  1  0  0  0  0
 30 47  1  0  0  0  0
M  END
> <PUBCHEM_COMPOUND_CID>
9868037

> <PUBCHEM_CONFORMER_RMSD>
1

> <PUBCHEM_CONFORMER_DIVERSEORDER>
1
60
69
48
73
32
83
88
15
72
7
127
93
111
86
5
52
2
106
29
70
38
45
6
58
24
89
33
23
87
101
68
114
4
37
66
97
59
50
63
75
61
44
108
78
19
34
120
3
105
41
36
123
128
62
28
14
122
90
99
113
79
8
47
54
119
107
18
103
121
77
102
9
30
20
11
98
43
13
16
39
74
55
10
53
109
85
100
117
110
49
17
46
25
51
35
124
27
64
21
92
116
81
126
65
26
80
31
42
84
57
112
71
82
104
94
125
40
118
95
22
96
115
12
56
76
67
91

> <PUBCHEM_MMFF94_PARTIAL_CHARGES>
44
1 -0.08
10 -0.14
11 0.51
13 0.08
14 0.31
15 -0.15
16 -0.05
17 -0.15
18 -0.15
19 -0.15
2 -0.34
20 0.16
21 -0.15
22 0.71
23 -0.15
24 -0.11
25 0.12
26 -0.15
27 -0.15
28 0.08
29 -0.15
3 -0.34
30 -0.15
31 1.3
34 0.4
35 0.15
36 0.15
37 0.15
38 0.15
39 0.15
4 -0.34
40 0.15
41 0.15
42 0.15
43 0.37
44 0.15
45 0.15
46 0.15
47 0.15
5 -0.57
6 -0.36
7 -0.85
8 -0.62
9 -0.55

> <PUBCHEM_EFFECTIVE_ROTOR_COUNT>
8

> <PUBCHEM_PHARMACOPHORE_FEATURES>
10
1 5 acceptor
1 6 acceptor
1 7 cation
1 7 donor
1 8 acceptor
1 9 donor
5 1 13 16 18 24 rings
6 12 14 17 19 21 23 rings
6 25 26 27 28 29 30 rings
6 8 10 12 14 15 20 rings

> <PUBCHEM_HEAVY_ATOM_COUNT>
31

> <PUBCHEM_ATOM_DEF_STEREO_COUNT>
0

> <PUBCHEM_ATOM_UDEF_STEREO_COUNT>
0

> <PUBCHEM_BOND_DEF_STEREO_COUNT>
0

> <PUBCHEM_BOND_UDEF_STEREO_COUNT>
0

> <PUBCHEM_ISOTOPIC_ATOM_COUNT>
0

> <PUBCHEM_COMPONENT_COUNT>
1

> <PUBCHEM_CACTVS_TAUTO_COUNT>
5

> <PUBCHEM_CONFORMER_ID>
0096930500000001

> <PUBCHEM_MMFF94_ENERGY>
95.6144

> <PUBCHEM_FEATURE_SELFOVERLAP>
50.778

> <PUBCHEM_SHAPE_FINGERPRINT>
10369192 42 18271257062384150779
10554248 39 18130786699325002150
10928967 22 7853271186431783769
10930396 42 17386014988191535137
11112241 14 18118962500088353813
11621639 307 17702099162859590393
12107183 9 18337944603004624562
12422481 6 17603590677283290918
12975358 362 18117296773805497525
13103583 49 14201695100181018511
13911987 19 18341604885665605865
14251764 75 18411986827613028467
14294032 229 18262235629761220116
14347329 18 18342733027054643842
14512766 119 18269842068033662796
14747282 140 18411991260626764113
14790565 3 18341618061944567298
15064981 113 17489583468220541542
15131766 46 18057319488884591529
15274700 147 16747078051803836676
15400415 2 18413108386041651314
15513586 35 17537462968734965981
16120349 189 18334850602515003927
16992828 155 18260541247265693605
18393751 57 18260558788624234515
19304152 47 17967820482753006131
19309040 13 17273711866614226853
20058555 10 18409447011883196820
20691028 202 18342460300963666897
21033648 144 18408887321857166059
21795232 40 18408599245769455477
22956985 138 16817444588890504595
23191077 185 18336532876459396075
23569914 152 16912876275272736868
2748736 6 18340478998216241400
2838139 119 18264201431195661431
3418910 222 17610634380973279710
3610482 184 16629968716330883075
393628 194 18342461387580180777
4169191 19 18411700993793281100
50009960 94 10591211141902811020
5372103 7 17460288012164861437
57724786 102 17838904737894085051
6034566 193 18411980235397534407
6036956 94 18267870484613905025
6327066 14 18336539443954053687
636775 72 18124031493553431832
7970288 3 8934700198421612729

> <PUBCHEM_SHAPE_MULTIPOLES>
593.31
19.41
5.49
1.66
26.34
4.16
0.01
-25.27
0.82
-1.25
1.69
-3.9
-1.43
0.54

> <PUBCHEM_SHAPE_SELFOVERLAP>
1297.713

> <PUBCHEM_SHAPE_VOLUME>
324.8

> <PUBCHEM_COORDINATE_TYPE>
2
5
10

$$$$
17754438
  -OEChem-11282412143D

 44 48  0     0  0  0  0  0  0999 V2000
    2.4850    3.9815    0.1409 O   0  0  0  0  0  0  0  0  0  0  0  0
   -0.8132   -2.5505    0.7790 N   0  0  0  0  0  0  0  0  0  0  0  0
    4.1711    1.6410    0.4259 N   0  0  0  0  0  0  0  0  0  0  0  0
    1.1998   -1.2135    0.4128 N   0  0  0  0  0  0  0  0  0  0  0  0
   -1.2924   -3.7271    0.3287 N   0  0  0  0  0  0  0  0  0  0  0  0
    5.0717    1.1320   -0.4321 N   0  0  0  0  0  0  0  0  0  0  0  0
    1.7747   -3.4517   -1.3341 N   0  0  0  0  0  0  0  0  0  0  0  0
   -0.3992   -4.2317   -0.5223 N   0  0  0  0  0  0  0  0  0  0  0  0
   -5.0851    1.8650   -0.8433 N   0  0  0  0  0  0  0  0  0  0  0  0
   -1.5795   -1.7493    1.7395 C   0  0  0  0  0  0  0  0  0  0  0  0
   -2.4954   -0.7901    1.0585 C   0  0  0  0  0  0  0  0  0  0  0  0
    0.3981   -2.2730    0.2284 C   0  0  0  0  0  0  0  0  0  0  0  0
    3.2590   -0.2397   -0.2083 C   0  0  0  0  0  0  0  0  0  0  0  0
   -2.0563    0.4916    0.7397 C   0  0  0  0  0  0  0  0  0  0  0  0
    2.3257   -1.3227   -0.3290 C   0  0  0  0  0  0  0  0  0  0  0  0
   -2.9165    1.3990    0.0984 C   0  0  0  0  0  0  0  0  0  0  0  0
    0.6429   -3.3548   -0.5962 C   0  0  0  0  0  0  0  0  0  0  0  0
   -3.7930   -1.1699    0.7386 C   0  0  0  0  0  0  0  0  0  0  0  0
    3.0673    0.8579    0.5949 C   0  0  0  0  0  0  0  0  0  0  0  0
   -4.2353    1.0204   -0.2292 C   0  0  0  0  0  0  0  0  0  0  0  0
    4.4296    2.9066    1.0694 C   0  0  0  0  0  0  0  0  0  0  0  0
   -4.6480   -0.2675    0.1010 C   0  0  0  0  0  0  0  0  0  0  0  0
    4.5090   -0.0168   -0.8163 C   0  0  0  0  0  0  0  0  0  0  0  0
    2.6015   -2.3946   -1.1662 C   0  0  0  0  0  0  0  0  0  0  0  0
   -2.5004    2.6952   -0.2339 C   0  0  0  0  0  0  0  0  0  0  0  0
    3.8970    4.0875    0.2690 C   0  0  0  0  0  0  0  0  0  0  0  0
   -3.3738    3.5678   -0.8668 C   0  0  0  0  0  0  0  0  0  0  0  0
   -4.6444    3.1074   -1.1470 C   0  0  0  0  0  0  0  0  0  0  0  0
   -0.8570   -1.2307    2.3809 H   0  0  0  0  0  0  0  0  0  0  0  0
   -2.1287   -2.4481    2.3821 H   0  0  0  0  0  0  0  0  0  0  0  0
   -1.0407    0.7929    0.9900 H   0  0  0  0  0  0  0  0  0  0  0  0
   -4.1563   -2.1659    0.9777 H   0  0  0  0  0  0  0  0  0  0  0  0
    2.2636    1.1491    1.2587 H   0  0  0  0  0  0  0  0  0  0  0  0
    3.9512    2.8677    2.0550 H   0  0  0  0  0  0  0  0  0  0  0  0
    5.5109    2.9961    1.2206 H   0  0  0  0  0  0  0  0  0  0  0  0
   -5.6598   -0.5893   -0.1390 H   0  0  0  0  0  0  0  0  0  0  0  0
    5.0445   -0.6340   -1.5239 H   0  0  0  0  0  0  0  0  0  0  0  0
    3.5130   -2.4588   -1.7518 H   0  0  0  0  0  0  0  0  0  0  0  0
   -1.4925    3.0320   -0.0016 H   0  0  0  0  0  0  0  0  0  0  0  0
    4.1295    5.0262    0.7811 H   0  0  0  0  0  0  0  0  0  0  0  0
    4.3341    4.1125   -0.7347 H   0  0  0  0  0  0  0  0  0  0  0  0
   -3.0686    4.5735   -1.1310 H   0  0  0  0  0  0  0  0  0  0  0  0
   -5.3705    3.7449   -1.6406 H   0  0  0  0  0  0  0  0  0  0  0  0
    2.1864    4.7525   -0.3708 H   0  0  0  0  0  0  0  0  0  0  0  0
  1 26  1  0  0  0  0
  1 44  1  0  0  0  0
  2  5  1  0  0  0  0
  2 10  1  0  0  0  0
  2 12  1  0  0  0  0
  3  6  1  0  0  0  0
  3 19  1  0  0  0  0
  3 21  1  0  0  0  0
  4 12  2  0  0  0  0
  4 15  1  0  0  0  0
  5  8  2  0  0  0  0
  6 23  2  0  0  0  0
  7 17  2  0  0  0  0
  7 24  1  0  0  0  0
  8 17  1  0  0  0  0
  9 20  1  0  0  0  0
  9 28  2  0  0  0  0
 10 11  1  0  0  0  0
 10 29  1  0  0  0  0
 10 30  1  0  0  0  0
 11 14  2  0  0  0  0
 11 18  1  0  0  0  0
 12 17  1  0  0  0  0
 13 15  1  0  0  0  0
 13 19  2  0  0  0  0
 13 23  1  0  0  0  0
 14 16  1  0  0  0  0
 14 31  1  0  0  0  0
 15 24  2  0  0  0  0
 16 20  2  0  0  0  0
 16 25  1  0  0  0  0
 18 22  2  0  0  0  0
 18 32  1  0  0  0  0
 19 33  1  0  0  0  0
 20 22  1  0  0  0  0
 21 26  1  0  0  0  0
 21 34  1  0  0  0  0
 21 35  1  0  0  0  0
 22 36  1  0  0  0  0
 23 37  1  0  0  0  0
 24 38  1  0  0  0  0
 25 27  2  0  0  0  0
 25 39  1  0  0  0  0
 26 40  1  0  0  0  0
 26 41  1  0  0  0  0
 27 28  1  0  0  0  0
 27 42  1  0  0  0  0
 28 43  1  0  0  0  0
M  END
> <PUBCHEM_COMPOUND_CID>
17754438

> <PUBCHEM_CONFORMER_RMSD>
0.8

> <PUBCHEM_CONFORMER_DIVERSEORDER>
1
26
130
100
48
167
59
129
47
126
148
174
118
32
166
133
49
108
161
36
114
82
160
181
138
84
145
144
131
151
53
159
81
135
162
119
25
142
127
177
41
87
150
46
45
179
104
165
44
168
128
140
137
117
158
139
78
107
7
136
13
124
141
111
176
16
153
103
97
91
56
31
154
178
85
143
157
95
98
116
3
58
50
80
146
66
94
42
15
170
115
109
106
70
155
101
156
76
69
110
23
65
163
33
180
29
28
86
83
173
88
43
164
175
64
30
54
75
172
73
120
62
19
10
14
35
123
21
63
113
89
67
169
72
11
147
105
5
152
134
38
79
27
39
71
92
2
132
102
68
77
122
61
6
171
9
99
74
4
93
125
60
121
96
20
40
12
34
112
90
57
37
55
8
24
149
17
51
22
52
18

> <PUBCHEM_MMFF94_PARTIAL_CHARGES>
37
1 -0.68
10 0.4
11 -0.14
12 0.11
13 -0.05
14 -0.15
15 0.36
17 0.48
18 -0.15
19 -0.3
2 0.31
20 0.31
21 0.26
22 -0.15
23 0.14
24 0.16
25 -0.15
26 0.28
27 -0.15
28 0.16
3 0.31
31 0.15
32 0.15
33 0.15
36 0.15
37 0.15
38 0.15
39 0.15
4 -0.57
42 0.15
43 0.15
44 0.4
5 -0.42
6 -0.71
7 -0.57
8 -0.23
9 -0.62

> <PUBCHEM_EFFECTIVE_ROTOR_COUNT>
5

> <PUBCHEM_PHARMACOPHORE_FEATURES>
11
1 1 acceptor
1 1 donor
1 6 acceptor
1 9 acceptor
3 2 4 12 cation
3 7 8 17 cation
5 2 5 8 12 17 rings
5 3 6 13 19 23 rings
6 11 14 16 18 20 22 rings
6 4 7 12 15 17 24 rings
6 9 16 20 25 27 28 rings

> <PUBCHEM_HEAVY_ATOM_COUNT>
28

> <PUBCHEM_ATOM_DEF_STEREO_COUNT>
0

> <PUBCHEM_ATOM_UDEF_STEREO_COUNT>
0

> <PUBCHEM_BOND_DEF_STEREO_COUNT>
0

> <PUBCHEM_BOND_UDEF_STEREO_COUNT>
0

> <PUBCHEM_ISOTOPIC_ATOM_COUNT>
0

> <PUBCHEM_COMPONENT_COUNT>
1

> <PUBCHEM_CACTVS_TAUTO_COUNT>
1

> <PUBCHEM_CONFORMER_ID>
010EE94600000001

> <PUBCHEM_MMFF94_ENERGY>
59.5213

> <PUBCHEM_FEATURE_SELFOVERLAP>
56.101

> <PUBCHEM_SHAPE_FINGERPRINT>
10439779 11 17759508981123286122
10871710 139 17473829905871449938
11370993 70 18410011018023454889
12100795 323 18266458909056553060
12769317 202 18270676468014117376
133061 13 17839723091861768272
13402501 40 18408324363124094524
13561361 72 18122340443852033392
13590594 115 16897653381497994115
1361 2 18340195375998924197
14251764 38 18264485100800108835
14347329 18 17969246489552667302
14468879 13 18260838072565912827
14957384 54 18337103575197710738
15961568 22 17330561354940325948
16067690 210 17753877621784124008
16992787 43 18410569592771590261
1768 85 18267035951293564713
17974551 9 17385721340591601682
17980427 23 17613400421627565659
18681886 176 17907848510111948947
19246450 95 18196064804051230736
20398071 114 18408602539470982817
21033648 144 18270407229668342634
21049683 118 16590565428238521057
21388113 180 18410854382155278228
21859007 373 18411976988766138680
21860390 5 18053945048189101390
23227448 37 18196936797321406178
23466295 7 11345843973061214705
23559900 14 18051405176365946043
238 59 18129662972038640582
2838139 119 18409161130090432518
325973 47 18337675333502152780
3298306 158 18412541002895613664
376196 1 18334573491188395811
46194498 28 18057895641013625335
508706 21 18196367241940697624
6036956 94 17756142650540777061
6608658 132 17042049529608081484
7399639 24 18336562563985216891
7808743 9 18194680599873004576
9981440 41 18186523181230416859

> <PUBCHEM_SHAPE_MULTIPOLES>
530.51
10.85
6.17
1.16
0.39
0.56
-0.08
11.19
1.45
-2.1
0.89
0.17
-0.25
3.23

> <PUBCHEM_SHAPE_SELFOVERLAP>
1189.35

> <PUBCHEM_SHAPE_VOLUME>
280.1

> <PUBCHEM_COORDINATE_TYPE>
2
5
10

$$$$
24794418
  -OEChem-11282412143D

 55 58  0     0  0  0  0  0  0999 V2000
    6.5180    3.1934    0.4524 Cl  0  0  0  0  0  0  0  0  0  0  0  0
    3.7027   -1.1967    2.7380 F   0  0  0  0  0  0  0  0  0  0  0  0
   -8.0802    4.1109   -0.3434 F   0  0  0  0  0  0  0  0  0  0  0  0
   -2.1990   -3.6853   -0.2794 O   0  0  0  0  0  0  0  0  0  0  0  0
   -2.9504    0.8152    0.9830 O   0  0  0  0  0  0  0  0  0  0  0  0
    5.0181    0.7346    1.2839 O   0  0  0  0  0  0  0  0  0  0  0  0
   -0.8240   -2.1275    1.7956 O   0  0  0  0  0  0  0  0  0  0  0  0
   -4.6566   -0.2926   -0.2145 N   0  0  0  0  0  0  0  0  0  0  0  0
   -0.3250   -0.4294    0.2421 N   0  0  0  0  0  0  0  0  0  0  0  0
    7.7427    0.1391   -1.8294 N   0  0  0  0  0  0  0  0  0  0  0  0
    8.3619    2.4184   -1.7749 N   0  0  0  0  0  0  0  0  0  0  0  0
   -2.4901   -1.3914    0.3317 C   0  0  0  0  0  0  0  0  0  0  0  0
   -3.3771   -0.1746    0.3863 C   0  0  0  0  0  0  0  0  0  0  0  0
   -2.9500   -2.5306   -0.2075 C   0  0  0  0  0  0  0  0  0  0  0  0
   -5.5464    0.8521   -0.2481 C   0  0  0  0  0  0  0  0  0  0  0  0
   -5.0612   -1.5148   -0.7470 C   0  0  0  0  0  0  0  0  0  0  0  0
   -4.2773   -2.5970   -0.7549 C   0  0  0  0  0  0  0  0  0  0  0  0
   -1.1246   -1.3668    0.8790 C   0  0  0  0  0  0  0  0  0  0  0  0
    1.0343   -0.1335    0.5075 C   0  0  0  0  0  0  0  0  0  0  0  0
   -6.9277    0.6630   -0.2047 C   0  0  0  0  0  0  0  0  0  0  0  0
   -5.0211    2.1421   -0.3238 C   0  0  0  0  0  0  0  0  0  0  0  0
    1.7151   -0.8232    1.5109 C   0  0  0  0  0  0  0  0  0  0  0  0
    1.6922    0.8475   -0.2344 C   0  0  0  0  0  0  0  0  0  0  0  0
   -1.4584   -3.7288   -1.4836 C   0  0  0  0  0  0  0  0  0  0  0  0
   -7.7837    1.7639   -0.2370 C   0  0  0  0  0  0  0  0  0  0  0  0
   -5.8771    3.2428   -0.3562 C   0  0  0  0  0  0  0  0  0  0  0  0
    3.7117    0.4495    1.0307 C   0  0  0  0  0  0  0  0  0  0  0  0
    3.0539   -0.5316    1.7724 C   0  0  0  0  0  0  0  0  0  0  0  0
    3.0309    1.1390    0.0273 C   0  0  0  0  0  0  0  0  0  0  0  0
   -7.2584    3.0538   -0.3127 C   0  0  0  0  0  0  0  0  0  0  0  0
   -0.6400   -5.0020   -1.5135 C   0  0  0  0  0  0  0  0  0  0  0  0
    5.9268    0.5593    0.2538 C   0  0  0  0  0  0  0  0  0  0  0  0
    6.6891    1.6161   -0.2316 C   0  0  0  0  0  0  0  0  0  0  0  0
    6.0715   -0.7073   -0.3014 C   0  0  0  0  0  0  0  0  0  0  0  0
    7.5748    1.3560   -1.2649 C   0  0  0  0  0  0  0  0  0  0  0  0
    6.9848   -0.8636   -1.3315 C   0  0  0  0  0  0  0  0  0  0  0  0
   -6.0403   -1.5751   -1.2073 H   0  0  0  0  0  0  0  0  0  0  0  0
   -4.6226   -3.5275   -1.1919 H   0  0  0  0  0  0  0  0  0  0  0  0
   -0.7425    0.1180   -0.5081 H   0  0  0  0  0  0  0  0  0  0  0  0
   -7.3789   -0.3201   -0.1094 H   0  0  0  0  0  0  0  0  0  0  0  0
   -3.9586    2.3386   -0.4220 H   0  0  0  0  0  0  0  0  0  0  0  0
    1.2730   -1.5946    2.1254 H   0  0  0  0  0  0  0  0  0  0  0  0
    1.1726    1.3936   -1.0176 H   0  0  0  0  0  0  0  0  0  0  0  0
   -2.1321   -3.7200   -2.3495 H   0  0  0  0  0  0  0  0  0  0  0  0
   -0.7807   -2.8701   -1.5603 H   0  0  0  0  0  0  0  0  0  0  0  0
   -8.8591    1.6182   -0.1953 H   0  0  0  0  0  0  0  0  0  0  0  0
   -5.4695    4.2469   -0.4287 H   0  0  0  0  0  0  0  0  0  0  0  0
    3.5241    1.9129   -0.5544 H   0  0  0  0  0  0  0  0  0  0  0  0
   -0.0561   -5.0704   -2.4356 H   0  0  0  0  0  0  0  0  0  0  0  0
   -1.2898   -5.8805   -1.4410 H   0  0  0  0  0  0  0  0  0  0  0  0
    0.0440   -5.0401   -0.6591 H   0  0  0  0  0  0  0  0  0  0  0  0
    5.5040   -1.5601    0.0550 H   0  0  0  0  0  0  0  0  0  0  0  0
    7.1371   -1.8319   -1.7967 H   0  0  0  0  0  0  0  0  0  0  0  0
    8.9935    2.2008   -2.5356 H   0  0  0  0  0  0  0  0  0  0  0  0
    7.9984    3.3608   -1.7041 H   0  0  0  0  0  0  0  0  0  0  0  0
  1 33  1  0  0  0  0
  2 28  1  0  0  0  0
  3 30  1  0  0  0  0
  4 14  1  0  0  0  0
  4 24  1  0  0  0  0
  5 13  2  0  0  0  0
  6 27  1  0  0  0  0
  6 32  1  0  0  0  0
  7 18  2  0  0  0  0
  8 13  1  0  0  0  0
  8 15  1  0  0  0  0
  8 16  1  0  0  0  0
  9 18  1  0  0  0  0
  9 19  1  0  0  0  0
  9 39  1  0  0  0  0
 10 35  2  0  0  0  0
 10 36  1  0  0  0  0
 11 35  1  0  0  0  0
 11 54  1  0  0  0  0
 11 55  1  0  0  0  0
 12 13  1  0  0  0  0
 12 14  2  0  0  0  0
 12 18  1  0  0  0  0
 14 17  1  0  0  0  0
 15 20  2  0  0  0  0
 15 21  1  0  0  0  0
 16 17  2  0  0  0  0
 16 37  1  0  0  0  0
 17 38  1  0  0  0  0
 19 22  2  0  0  0  0
 19 23  1  0  0  0  0
 20 25  1  0  0  0  0
 20 40  1  0  0  0  0
 21 26  2  0  0  0  0
 21 41  1  0  0  0  0
 22 28  1  0  0  0  0
 22 42  1  0  0  0  0
 23 29  2  0  0  0  0
 23 43  1  0  0  0  0
 24 31  1  0  0  0  0
 24 44  1  0  0  0  0
 24 45  1  0  0  0  0
 25 30  2  0  0  0  0
 25 46  1  0  0  0  0
 26 30  1  0  0  0  0
 26 47  1  0  0  0  0
 27 28  2  0  0  0  0
 27 29  1  0  0  0  0
 29 48  1  0  0  0  0
 31 49  1  0  0  0  0
 31 50  1  0  0  0  0
 31 51  1  0  0  0  0
 32 33  2  0  0  0  0
 32 34  1  0  0  0  0
 33 35  1  0  0  0  0
 34 36  2  0  0  0  0
 34 52  1  0  0  0  0
 36 53  1  0  0  0  0
M  END
> <PUBCHEM_COMPOUND_CID>
24794418

> <PUBCHEM_CONFORMER_RMSD>
1

> <PUBCHEM_CONFORMER_DIVERSEORDER>
2
92
102
19
77
75
86
60
106
13
41
30
45
89
20
85
52
94
49
70
100
65
83
64
7
68
73
111
82
26
22
93
67
76
103
96
91
80
40
5
78
59
33
88
84
95
9
101
81
74
99
36
63
51
37
90
38
87
55
44
71
12
23
46
24
104
42
39
108
31
97
8
18
61
79
72
27
47
54
10
107
35
62
16
58
4
110
11
50
53
25
17
69
32
105
34
48
57
43
29
6
28
66
3
109
21
56
98
14
15
1

> <PUBCHEM_MMFF94_PARTIAL_CHARGES>
49
1 -0.18
10 -0.62
11 -0.9
12 0.03
13 0.62
14 0.08
15 0.12
16 -0.04
17 -0.15
18 0.62
19 0.12
2 -0.19
20 -0.15
21 -0.15
22 -0.15
23 -0.15
24 0.28
25 -0.15
26 -0.15
27 0.08
28 0.19
29 -0.15
3 -0.19
30 0.19
32 0.08
33 0.18
34 -0.15
35 0.41
36 0.16
37 0.15
38 0.15
39 0.37
4 -0.36
40 0.15
41 0.15
42 0.15
43 0.15
46 0.15
47 0.15
48 0.15
5 -0.57
52 0.15
53 0.15
54 0.4
55 0.4
6 -0.17
7 -0.57
8 -0.29
9 -0.55

> <PUBCHEM_EFFECTIVE_ROTOR_COUNT>
8

> <PUBCHEM_PHARMACOPHORE_FEATURES>
11
1 11 donor
1 4 acceptor
1 5 acceptor
1 6 acceptor
1 7 acceptor
1 9 donor
3 10 11 35 cation
6 10 32 33 34 35 36 rings
6 15 20 21 25 26 30 rings
6 19 22 23 27 28 29 rings
6 8 12 13 14 16 17 rings

> <PUBCHEM_HEAVY_ATOM_COUNT>
36

> <PUBCHEM_ATOM_DEF_STEREO_COUNT>
0

> <PUBCHEM_ATOM_UDEF_STEREO_COUNT>
0

> <PUBCHEM_BOND_DEF_STEREO_COUNT>
0

> <PUBCHEM_BOND_UDEF_STEREO_COUNT>
0

> <PUBCHEM_ISOTOPIC_ATOM_COUNT>
0

> <PUBCHEM_COMPONENT_COUNT>
1

> <PUBCHEM_CACTVS_TAUTO_COUNT>
4

> <PUBCHEM_CONFORMER_ID>
017A553200000002

> <PUBCHEM_MMFF94_ENERGY>
136.9112

> <PUBCHEM_FEATURE_SELFOVERLAP>
55.824

> <PUBCHEM_SHAPE_FINGERPRINT>
10 15 12468356864705155416
10190206 1 17845941727996536841
10369192 42 18410571769971771821
10454371 7 18413390942796265009
10906281 52 17822010917426234402
10939801 23 18113617854947958997
11991303 11 17774996929345108399
12013929 112 18335995168850725926
13757389 114 18341046428242929119
13782708 43 15913326927076432298
14400156 260 18186516571529260968
14664723 55 18343304722073818817
15064981 113 17131552747936363589
15064981 194 17896606279001391423
15183329 4 18273502264901306922
15188451 53 11024107642442814618
15198563 99 17984402295928989639
15276724 80 17749664104564260684
15297060 5 18273216374925102097
15419008 91 17702370923031240104
15439362 3 18268430131984849839
1577012 14 18187639202632772169
16728433 281 18271535195091406688
16990366 60 9222644719183906141
19304144 158 17483096530216292752
20505436 4 18187079551156920427
21133410 127 17973160630995408325
21781055 127 17916587518675444299
22149856 69 12108063306457511269
23522609 53 17894633673388771316
23559900 14 17702381939194774410
23576562 1 18264204884824433189
24771293 8 17970341732500798924
24771750 20 18200030621696483687
406291 66 11815896747582805284
4073 2 17749112192518684371
44802255 64 18200880672695883831
44880568 143 18339926042958075480
4516262 110 17895464853030113527
50009960 94 8141496009539467441
508180 173 18341050804134102936
5265222 85 18342173422949537955
5718773 13 11312052149513155913
5758199 1 17530966877701527536
5911458 16 18040439879756361749
5937810 71 18187931720118834644
6328613 192 18114465638737259932
6697151 62 15841547488206183626

> <PUBCHEM_SHAPE_MULTIPOLES>
684.78
25.49
4.73
1.55
14.03
2.55
-0.4
-27.05
10.18
-7.65
2.1
2.76
0.69
-0.55

> <PUBCHEM_SHAPE_SELFOVERLAP>
1492.36

> <PUBCHEM_SHAPE_VOLUME>
373.4

> <PUBCHEM_COORDINATE_TYPE>
2
5
10

$$$$
121280087
  -OEChem-11282412143D

 74 78  0     1  0  0  0  0  0999 V2000
    3.3338   -3.5919    0.0380 O   0  0  0  0  0  0  0  0  0  0  0  0
   -0.7664    1.0125   -2.0010 O   0  0  0  0  0  0  0  0  0  0  0  0
   -4.9253    0.6821    0.6252 N   0  0  0  0  0  0  0  0  0  0  0  0
   -1.3495   -2.0397    0.0192 N   0  0  0  0  0  0  0  0  0  0  0  0
   -1.3585   -4.4448   -0.1325 N   0  0  0  0  0  0  0  0  0  0  0  0
    0.6044   -3.2202   -0.5229 N   0  0  0  0  0  0  0  0  0  0  0  0
    4.2976    0.9565   -1.1458 N   0  0  3  0  0  0  0  0  0  0  0  0
    6.0271    2.1757    1.9059 N   0  0  0  0  0  0  0  0  0  0  0  0
    1.5438    1.3592   -1.7202 N   0  0  0  0  0  0  0  0  0  0  0  0
   -6.2921    1.3077    0.4786 C   0  0  0  0  0  0  0  0  0  0  0  0
   -6.4660    2.5779   -0.3208 C   0  0  0  0  0  0  0  0  0  0  0  0
   -6.9991    1.2861   -0.8563 C   0  0  0  0  0  0  0  0  0  0  0  0
   -3.8010    1.3169    1.1032 C   0  0  0  0  0  0  0  0  0  0  0  0
   -4.6316   -0.6139    0.2958 C   0  0  0  0  0  0  0  0  0  0  0  0
   -2.7600    0.3865    1.0741 C   0  0  0  0  0  0  0  0  0  0  0  0
   -3.2988   -0.8271    0.5624 C   0  0  0  0  0  0  0  0  0  0  0  0
   -3.6278    2.6301    1.5546 C   0  0  0  0  0  0  0  0  0  0  0  0
   -1.4827    0.7838    1.5166 C   0  0  0  0  0  0  0  0  0  0  0  0
   -2.6617   -2.0914    0.3289 C   0  0  0  0  0  0  0  0  0  0  0  0
   -2.3521    3.0016    1.9886 C   0  0  0  0  0  0  0  0  0  0  0  0
   -1.2946    2.0943    1.9708 C   0  0  0  0  0  0  0  0  0  0  0  0
   -3.3810   -3.2651    0.4253 C   0  0  0  0  0  0  0  0  0  0  0  0
   -0.7690   -3.2357   -0.1959 C   0  0  0  0  0  0  0  0  0  0  0  0
   -2.6705   -4.4228    0.1817 C   0  0  0  0  0  0  0  0  0  0  0  0
    1.5347   -2.1756   -0.6782 C   0  0  0  0  0  0  0  0  0  0  0  0
    3.3574   -0.0870   -0.9928 C   0  0  0  0  0  0  0  0  0  0  0  0
    4.5829    1.8513   -0.0435 C   0  0  0  0  0  0  0  0  0  0  0  0
    2.0070    0.1170   -1.2770 C   0  0  0  0  0  0  0  0  0  0  0  0
    5.7076    1.2739    0.8063 C   0  0  0  0  0  0  0  0  0  0  0  0
    2.8851   -2.3796   -0.3941 C   0  0  0  0  0  0  0  0  0  0  0  0
    1.0958   -0.9274   -1.1199 C   0  0  0  0  0  0  0  0  0  0  0  0
    3.7964   -1.3353   -0.5515 C   0  0  0  0  0  0  0  0  0  0  0  0
    4.9799    1.1471   -2.4087 C   0  0  0  0  0  0  0  0  0  0  0  0
    5.0519    2.0348    2.9889 C   0  0  0  0  0  0  0  0  0  0  0  0
    7.3798    1.9214    2.4053 C   0  0  0  0  0  0  0  0  0  0  0  0
    0.2313    1.7225   -2.0448 C   0  0  0  0  0  0  0  0  0  0  0  0
    3.3473   -3.8123    1.4468 C   0  0  0  0  0  0  0  0  0  0  0  0
    0.1483    3.1474   -2.4788 C   0  0  0  0  0  0  0  0  0  0  0  0
   -1.0243    3.6836   -2.8312 C   0  0  0  0  0  0  0  0  0  0  0  0
   -6.9003    1.1897    1.3686 H   0  0  0  0  0  0  0  0  0  0  0  0
   -5.6092    3.0063   -0.8263 H   0  0  0  0  0  0  0  0  0  0  0  0
   -7.1793    3.3066    0.0445 H   0  0  0  0  0  0  0  0  0  0  0  0
   -8.0728    1.1426   -0.8532 H   0  0  0  0  0  0  0  0  0  0  0  0
   -6.4925    0.8503   -1.7087 H   0  0  0  0  0  0  0  0  0  0  0  0
   -5.4021   -1.2601   -0.1052 H   0  0  0  0  0  0  0  0  0  0  0  0
   -4.4452    3.3422    1.5801 H   0  0  0  0  0  0  0  0  0  0  0  0
   -0.6435    0.0948    1.5183 H   0  0  0  0  0  0  0  0  0  0  0  0
   -2.1838    4.0140    2.3469 H   0  0  0  0  0  0  0  0  0  0  0  0
   -0.3115    2.4060    2.3136 H   0  0  0  0  0  0  0  0  0  0  0  0
   -4.4304   -3.3156    0.6870 H   0  0  0  0  0  0  0  0  0  0  0  0
   -3.1499   -5.3943    0.2376 H   0  0  0  0  0  0  0  0  0  0  0  0
    1.0128   -4.1500   -0.5356 H   0  0  0  0  0  0  0  0  0  0  0  0
    4.8676    2.8406   -0.4248 H   0  0  0  0  0  0  0  0  0  0  0  0
    3.6713    2.0073    0.5447 H   0  0  0  0  0  0  0  0  0  0  0  0
    5.4680    0.2697    1.1765 H   0  0  0  0  0  0  0  0  0  0  0  0
    6.5830    1.1548    0.1530 H   0  0  0  0  0  0  0  0  0  0  0  0
    0.0612   -0.8303   -1.3981 H   0  0  0  0  0  0  0  0  0  0  0  0
    4.8489   -1.5063   -0.3384 H   0  0  0  0  0  0  0  0  0  0  0  0
    5.4805    0.2240   -2.7204 H   0  0  0  0  0  0  0  0  0  0  0  0
    5.7446    1.9286   -2.3447 H   0  0  0  0  0  0  0  0  0  0  0  0
    4.2706    1.4372   -3.1909 H   0  0  0  0  0  0  0  0  0  0  0  0
    2.2630    2.0738   -1.8097 H   0  0  0  0  0  0  0  0  0  0  0  0
    4.0427    2.3075    2.6660 H   0  0  0  0  0  0  0  0  0  0  0  0
    5.2980    2.7162    3.8116 H   0  0  0  0  0  0  0  0  0  0  0  0
    5.0232    1.0157    3.3921 H   0  0  0  0  0  0  0  0  0  0  0  0
    8.1211    2.0890    1.6159 H   0  0  0  0  0  0  0  0  0  0  0  0
    7.4961    0.8974    2.7787 H   0  0  0  0  0  0  0  0  0  0  0  0
    7.6278    2.6152    3.2164 H   0  0  0  0  0  0  0  0  0  0  0  0
    2.3394   -3.7216    1.8638 H   0  0  0  0  0  0  0  0  0  0  0  0
    4.0217   -3.1039    1.9383 H   0  0  0  0  0  0  0  0  0  0  0  0
    3.7113   -4.8267    1.6312 H   0  0  0  0  0  0  0  0  0  0  0  0
    1.0521    3.7462   -2.5062 H   0  0  0  0  0  0  0  0  0  0  0  0
   -1.9518    3.1221   -2.8176 H   0  0  0  0  0  0  0  0  0  0  0  0
   -1.0734    4.7210   -3.1454 H   0  0  0  0  0  0  0  0  0  0  0  0
  1 30  1  0  0  0  0
  1 37  1  0  0  0  0
  2 36  2  0  0  0  0
  3 10  1  0  0  0  0
  3 13  1  0  0  0  0
  3 14  1  0  0  0  0
  4 19  2  0  0  0  0
  4 23  1  0  0  0  0
  5 23  2  0  0  0  0
  5 24  1  0  0  0  0
  6 23  1  0  0  0  0
  6 25  1  0  0  0  0
  6 52  1  0  0  0  0
  7 26  1  0  0  0  0
  7 27  1  0  0  0  0
  7 33  1  0  0  0  0
  8 29  1  0  0  0  0
  8 34  1  0  0  0  0
  8 35  1  0  0  0  0
  9 28  1  0  0  0  0
  9 36  1  0  0  0  0
  9 62  1  0  0  0  0
 10 11  1  0  0  0  0
 10 12  1  0  0  0  0
 10 40  1  0  0  0  0
 11 12  1  0  0  0  0
 11 41  1  0  0  0  0
 11 42  1  0  0  0  0
 12 43  1  0  0  0  0
 12 44  1  0  0  0  0
 13 15  1  0  0  0  0
 13 17  2  0  0  0  0
 14 16  2  0  0  0  0
 14 45  1  0  0  0  0
 15 16  1  0  0  0  0
 15 18  2  0  0  0  0
 16 19  1  0  0  0  0
 17 20  1  0  0  0  0
 17 46  1  0  0  0  0
 18 21  1  0  0  0  0
 18 47  1  0  0  0  0
 19 22  1  0  0  0  0
 20 21  2  0  0  0  0
 20 48  1  0  0  0  0
 21 49  1  0  0  0  0
 22 24  2  0  0  0  0
 22 50  1  0  0  0  0
 24 51  1  0  0  0  0
 25 30  2  0  0  0  0
 25 31  1  0  0  0  0
 26 28  1  0  0  0  0
 26 32  2  0  0  0  0
 27 29  1  0  0  0  0
 27 53  1  0  0  0  0
 27 54  1  0  0  0  0
 28 31  2  0  0  0  0
 29 55  1  0  0  0  0
 29 56  1  0  0  0  0
 30 32  1  0  0  0  0
 31 57  1  0  0  0  0
 32 58  1  0  0  0  0
 33 59  1  0  0  0  0
 33 60  1  0  0  0  0
 33 61  1  0  0  0  0
 34 63  1  0  0  0  0
 34 64  1  0  0  0  0
 34 65  1  0  0  0  0
 35 66  1  0  0  0  0
 35 67  1  0  0  0  0
 35 68  1  0  0  0  0
 36 38  1  0  0  0  0
 37 69  1  0  0  0  0
 37 70  1  0  0  0  0
 37 71  1  0  0  0  0
 38 39  2  0  0  0  0
 38 72  1  0  0  0  0
 39 73  1  0  0  0  0
 39 74  1  0  0  0  0
M  END
> <PUBCHEM_COMPOUND_CID>
121280087

> <PUBCHEM_CONFORMER_RMSD>
1.2

> <PUBCHEM_CONFORMER_DIVERSEORDER>
1
65
53
59
56
67
8
55
21
30
19
25
64
43
48
42
35
45
57
62
22
66
5
26
41
52
17
63
61
38
10
12
58
32
39
33
31
69
9
18
54
68
16
37
44
4
49
27
60
13
34
29
15
20
28
46
11
50
3
24
40
36
6
7
51
14
47
2
23

> <PUBCHEM_MMFF94_PARTIAL_CHARGES>
57
1 -0.36
10 -0.09
11 -0.2
12 -0.2
13 -0.15
14 -0.3
16 -0.05
17 -0.15
18 -0.15
19 0.36
2 -0.57
20 -0.15
21 -0.15
22 -0.15
23 0.72
24 0.16
25 0.1
26 0.1
27 0.37
28 0.12
29 0.27
3 0.29
30 0.08
31 -0.15
32 -0.15
33 0.37
34 0.27
35 0.27
36 0.62
37 0.28
38 -0.14
39 -0.3
4 -0.62
40 0.1
41 0.1
42 0.1
43 0.1
44 0.1
45 0.15
46 0.15
47 0.15
48 0.15
49 0.15
5 -0.62
50 0.15
51 0.15
52 0.4
57 0.15
58 0.15
6 -0.6
62 0.37
7 -0.84
72 0.15
73 0.15
74 0.15
8 -0.81
9 -0.55

> <PUBCHEM_EFFECTIVE_ROTOR_COUNT>
12.6

> <PUBCHEM_PHARMACOPHORE_FEATURES>
14
1 1 acceptor
1 2 acceptor
1 3 cation
1 39 hydrophobe
1 4 acceptor
1 6 donor
1 7 cation
1 8 cation
1 9 donor
4 4 5 6 23 cation
5 3 13 14 15 16 rings
6 13 15 17 18 20 21 rings
6 25 26 28 30 31 32 rings
6 4 5 19 22 23 24 rings

> <PUBCHEM_HEAVY_ATOM_COUNT>
39

> <PUBCHEM_ATOM_DEF_STEREO_COUNT>
0

> <PUBCHEM_ATOM_UDEF_STEREO_COUNT>
0

> <PUBCHEM_BOND_DEF_STEREO_COUNT>
0

> <PUBCHEM_BOND_UDEF_STEREO_COUNT>
0

> <PUBCHEM_ISOTOPIC_ATOM_COUNT>
0

> <PUBCHEM_COMPONENT_COUNT>
1

> <PUBCHEM_CACTVS_TAUTO_COUNT>
21

> <PUBCHEM_CONFORMER_ID>
073A965700000001

> <PUBCHEM_MMFF94_ENERGY>
146.1312

> <PUBCHEM_FEATURE_SELFOVERLAP>
71.138

> <PUBCHEM_SHAPE_FINGERPRINT>
10439779 11 18336548330003921285
11007060 377 16964680151572922212
11513181 2 17988657267397662119
12422481 6 18187918487540249354
14117953 113 18046635508121084903
14725015 67 17535186653268833215
14739800 52 18273208703939633122
15003188 8 18334298669057627725
20511986 3 18411976953783895183
20642791 105 18264776648087402391
20715895 44 18191592952421411879
20764821 26 17766578106613891401
21033648 29 18342183301078510675
2132832 1 17904203976862432695
392239 28 17914058848279808818
4366758 6 18410282610903182741
469060 322 18115868671492909260
6371009 1 18124031235222027499
6669772 16 18130774690781071833
9961470 85 18410857629119074467

> <PUBCHEM_SHAPE_MULTIPOLES>
756
14.72
5.74
2.57
3.21
5.56
0.12
-10.87
-6.4
-1.07
-0.05
3.03
-3.33
1.26

> <PUBCHEM_SHAPE_SELFOVERLAP>
1624.98

> <PUBCHEM_SHAPE_VOLUME>
417.1

> <PUBCHEM_COORDINATE_TYPE>
2
5
10

$$$$
67462786
  -OEChem-11282412143D

 63 66  0     0  0  0  0  0  0999 V2000
   -1.9679   -3.2645    2.7614 O   0  0  0  0  0  0  0  0  0  0  0  0
   -3.1606   -3.8107   -1.8282 O   0  0  0  0  0  0  0  0  0  0  0  0
   -1.7659    0.5243   -0.2245 N   0  0  0  0  0  0  0  0  0  0  0  0
   -5.0885    2.1383   -0.7845 N   0  0  0  0  0  0  0  0  0  0  0  0
    3.0360    0.4250   -0.1637 N   0  0  0  0  0  0  0  0  0  0  0  0
    3.0912    3.1169    0.5221 N   0  0  0  0  0  0  0  0  0  0  0  0
    6.7532   -1.3421   -0.5486 N   0  0  0  0  0  0  0  0  0  0  0  0
    7.5860   -0.3232   -0.2761 N   0  0  0  0  0  0  0  0  0  0  0  0
   -2.8218    1.2335   -0.9666 C   0  0  0  0  0  0  0  0  0  0  0  0
   -4.0356    1.4300   -0.0675 C   0  0  0  0  0  0  0  0  0  0  0  0
   -6.2594    2.3238    0.0612 C   0  0  0  0  0  0  0  0  0  0  0  0
   -0.5350    1.1833   -0.0340 C   0  0  0  0  0  0  0  0  0  0  0  0
   -2.0359   -0.8541    0.0100 C   0  0  0  0  0  0  0  0  0  0  0  0
    0.6634    0.4888   -0.1894 C   0  0  0  0  0  0  0  0  0  0  0  0
   -0.5073    2.5270    0.3083 C   0  0  0  0  0  0  0  0  0  0  0  0
   -7.0845    1.0410    0.1112 C   0  0  0  0  0  0  0  0  0  0  0  0
   -7.0892    3.4888   -0.4688 C   0  0  0  0  0  0  0  0  0  0  0  0
    1.8935    1.1166   -0.0080 C   0  0  0  0  0  0  0  0  0  0  0  0
   -2.4703   -1.6673   -1.0367 C   0  0  0  0  0  0  0  0  0  0  0  0
   -1.8670   -1.3908    1.2863 C   0  0  0  0  0  0  0  0  0  0  0  0
    1.9215    2.4797    0.3392 C   0  0  0  0  0  0  0  0  0  0  0  0
    0.7182    3.1647    0.4921 C   0  0  0  0  0  0  0  0  0  0  0  0
   -2.1323   -2.7407    1.5159 C   0  0  0  0  0  0  0  0  0  0  0  0
   -2.7358   -3.0173   -0.8070 C   0  0  0  0  0  0  0  0  0  0  0  0
   -2.5667   -3.5540    0.4692 C   0  0  0  0  0  0  0  0  0  0  0  0
    4.1956    1.0806    0.0235 C   0  0  0  0  0  0  0  0  0  0  0  0
    4.2228    2.4074    0.3617 C   0  0  0  0  0  0  0  0  0  0  0  0
    5.3993    0.3245   -0.1488 C   0  0  0  0  0  0  0  0  0  0  0  0
    5.4326   -1.0066   -0.4859 C   0  0  0  0  0  0  0  0  0  0  0  0
    6.7531    0.6922   -0.0326 C   0  0  0  0  0  0  0  0  0  0  0  0
   -1.5219   -2.3765    3.7852 C   0  0  0  0  0  0  0  0  0  0  0  0
   -3.3130   -3.1965   -3.1071 C   0  0  0  0  0  0  0  0  0  0  0  0
    7.2921   -2.6422   -0.8688 C   0  0  0  0  0  0  0  0  0  0  0  0
   -3.1069    0.7144   -1.8884 H   0  0  0  0  0  0  0  0  0  0  0  0
   -2.4751    2.2123   -1.3244 H   0  0  0  0  0  0  0  0  0  0  0  0
   -3.7378    1.9939    0.8257 H   0  0  0  0  0  0  0  0  0  0  0  0
   -4.3982    0.4545    0.2713 H   0  0  0  0  0  0  0  0  0  0  0  0
   -5.9593    2.5931    1.0824 H   0  0  0  0  0  0  0  0  0  0  0  0
   -4.7271    3.0444   -1.0828 H   0  0  0  0  0  0  0  0  0  0  0  0
    0.6572   -0.5636   -0.4688 H   0  0  0  0  0  0  0  0  0  0  0  0
   -1.4162    3.1010    0.4640 H   0  0  0  0  0  0  0  0  0  0  0  0
   -7.3739    0.7117   -0.8934 H   0  0  0  0  0  0  0  0  0  0  0  0
   -6.5464    0.2203    0.5951 H   0  0  0  0  0  0  0  0  0  0  0  0
   -8.0053    1.2008    0.6834 H   0  0  0  0  0  0  0  0  0  0  0  0
   -7.4351    3.3035   -1.4921 H   0  0  0  0  0  0  0  0  0  0  0  0
   -6.5103    4.4193   -0.4700 H   0  0  0  0  0  0  0  0  0  0  0  0
   -7.9726    3.6516    0.1583 H   0  0  0  0  0  0  0  0  0  0  0  0
   -2.5437   -1.2348   -2.0264 H   0  0  0  0  0  0  0  0  0  0  0  0
   -1.5340   -0.7130    2.0657 H   0  0  0  0  0  0  0  0  0  0  0  0
    0.7255    4.2179    0.7658 H   0  0  0  0  0  0  0  0  0  0  0  0
   -2.7738   -4.6060    0.6482 H   0  0  0  0  0  0  0  0  0  0  0  0
    5.1360    2.9682    0.5204 H   0  0  0  0  0  0  0  0  0  0  0  0
    4.6538   -1.7319   -0.6828 H   0  0  0  0  0  0  0  0  0  0  0  0
    7.1795    1.6532    0.2185 H   0  0  0  0  0  0  0  0  0  0  0  0
   -1.4443   -2.9608    4.7080 H   0  0  0  0  0  0  0  0  0  0  0  0
   -2.2498   -1.5797    3.9724 H   0  0  0  0  0  0  0  0  0  0  0  0
   -0.5218   -1.9844    3.5709 H   0  0  0  0  0  0  0  0  0  0  0  0
   -3.6702   -3.9699   -3.7952 H   0  0  0  0  0  0  0  0  0  0  0  0
   -2.3543   -2.8405   -3.4995 H   0  0  0  0  0  0  0  0  0  0  0  0
   -4.0753   -2.4101   -3.0897 H   0  0  0  0  0  0  0  0  0  0  0  0
    6.4735   -3.3403   -1.0598 H   0  0  0  0  0  0  0  0  0  0  0  0
    7.8862   -2.9869   -0.0189 H   0  0  0  0  0  0  0  0  0  0  0  0
    7.9161   -2.5455   -1.7608 H   0  0  0  0  0  0  0  0  0  0  0  0
  1 23  1  0  0  0  0
  1 31  1  0  0  0  0
  2 24  1  0  0  0  0
  2 32  1  0  0  0  0
  3  9  1  0  0  0  0
  3 12  1  0  0  0  0
  3 13  1  0  0  0  0
  4 10  1  0  0  0  0
  4 11  1  0  0  0  0
  4 39  1  0  0  0  0
  5 18  2  0  0  0  0
  5 26  1  0  0  0  0
  6 21  2  0  0  0  0
  6 27  1  0  0  0  0
  7  8  1  0  0  0  0
  7 29  1  0  0  0  0
  7 33  1  0  0  0  0
  8 30  2  0  0  0  0
  9 10  1  0  0  0  0
  9 34  1  0  0  0  0
  9 35  1  0  0  0  0
 10 36  1  0  0  0  0
 10 37  1  0  0  0  0
 11 16  1  0  0  0  0
 11 17  1  0  0  0  0
 11 38  1  0  0  0  0
 12 14  2  0  0  0  0
 12 15  1  0  0  0  0
 13 19  2  0  0  0  0
 13 20  1  0  0  0  0
 14 18  1  0  0  0  0
 14 40  1  0  0  0  0
 15 22  2  0  0  0  0
 15 41  1  0  0  0  0
 16 42  1  0  0  0  0
 16 43  1  0  0  0  0
 16 44  1  0  0  0  0
 17 45  1  0  0  0  0
 17 46  1  0  0  0  0
 17 47  1  0  0  0  0
 18 21  1  0  0  0  0
 19 24  1  0  0  0  0
 19 48  1  0  0  0  0
 20 23  2  0  0  0  0
 20 49  1  0  0  0  0
 21 22  1  0  0  0  0
 22 50  1  0  0  0  0
 23 25  1  0  0  0  0
 24 25  2  0  0  0  0
 25 51  1  0  0  0  0
 26 27  2  0  0  0  0
 26 28  1  0  0  0  0
 27 52  1  0  0  0  0
 28 29  2  0  0  0  0
 28 30  1  0  0  0  0
 29 53  1  0  0  0  0
 30 54  1  0  0  0  0
 31 55  1  0  0  0  0
 31 56  1  0  0  0  0
 31 57  1  0  0  0  0
 32 58  1  0  0  0  0
 32 59  1  0  0  0  0
 32 60  1  0  0  0  0
 33 61  1  0  0  0  0
 33 62  1  0  0  0  0
 33 63  1  0  0  0  0
M  END
> <PUBCHEM_COMPOUND_CID>
67462786

> <PUBCHEM_CONFORMER_RMSD>
1

> <PUBCHEM_CONFORMER_DIVERSEORDER>
3
36
83
68
86
46
18
92
113
94
40
115
118
66
111
90
23
70
42
59
19
127
120
93
60
125
117
79
102
45
119
69
112
32
126
14
64
47
109
30
25
9
63
100
48
105
34
124
91
110
77
107
129
29
108
104
82
71
130
41
27
84
20
28
24
12
80
35
103
128
76
88
31
49
50
95
122
132
123
99
17
87
16
61
37
67
97
39
81
131
10
72
43
98
65
21
85
78
74
57
33
26
53
114
6
58
7
96
56
44
4
51
1
38
8
62
11
5
13
54
55
101
73
52
2
22
121
106
75
15
133
89
116

> <PUBCHEM_MMFF94_PARTIAL_CHARGES>
41
1 -0.36
10 0.27
11 0.27
12 0.1
13 0.1
14 -0.15
15 -0.15
18 0.31
19 -0.15
2 -0.36
20 -0.15
21 0.31
22 -0.15
23 0.08
24 0.08
25 -0.15
26 0.36
27 0.16
28 -0.05
29 -0.3
3 -0.57
30 0.14
31 0.28
32 0.28
33 0.26
39 0.36
4 -0.9
40 0.15
41 0.15
48 0.15
49 0.15
5 -0.62
50 0.15
51 0.15
52 0.15
53 0.15
54 0.15
6 -0.62
7 0.31
8 -0.71
9 0.37

> <PUBCHEM_EFFECTIVE_ROTOR_COUNT>
9

> <PUBCHEM_PHARMACOPHORE_FEATURES>
13
1 1 acceptor
1 2 acceptor
1 3 cation
1 4 cation
1 4 donor
1 5 acceptor
1 6 acceptor
1 8 acceptor
3 11 16 17 hydrophobe
5 7 8 28 29 30 rings
6 12 14 15 18 21 22 rings
6 13 19 20 23 24 25 rings
6 5 6 18 21 26 27 rings

> <PUBCHEM_HEAVY_ATOM_COUNT>
33

> <PUBCHEM_ATOM_DEF_STEREO_COUNT>
0

> <PUBCHEM_ATOM_UDEF_STEREO_COUNT>
0

> <PUBCHEM_BOND_DEF_STEREO_COUNT>
0

> <PUBCHEM_BOND_UDEF_STEREO_COUNT>
0

> <PUBCHEM_ISOTOPIC_ATOM_COUNT>
0

> <PUBCHEM_COMPONENT_COUNT>
1

> <PUBCHEM_CACTVS_TAUTO_COUNT>
1

> <PUBCHEM_CONFORMER_ID>
0405668200000003

> <PUBCHEM_MMFF94_ENERGY>
114.7031

> <PUBCHEM_FEATURE_SELFOVERLAP>
66.014

> <PUBCHEM_SHAPE_FINGERPRINT>
10050765 1 18197774603596983828
10119406 146 18409453553102486695
10369192 42 13190345643187565648
10622 236 17127595824673957574
10928967 22 18054810617776299758
11578080 2 16770691039341428937
11796584 16 18186521012814809016
11991303 11 18260831510146203773
12643181 29 18409445865527212304
12655364 131 16915396394062087198
13008946 113 17245827040279763725
13150687 139 18412538787641749941
14400156 350 17905594516323953389
14856354 85 16009040457930943273
14950920 106 16343428431338276978
15064986 266 18187654668588627540
15131766 46 15432314873579984549
15361156 5 18335708282062585228
15849732 13 17749113262108140837
15927050 60 18333726893369004067
16628084 112 17899972729759147506
18393751 57 9655284982081104452
19301676 85 18268995276313456598
19301679 30 18049166871577427147
19315092 285 16771261676843652602
21133665 82 18264774255626861014
23559900 14 18341043091016533448
249057 3 18335139778368563252
314194 84 18197786716237357234
335352 9 18413387614096358308
3383291 50 18272934882198887511
3418910 222 16528335130715639466
4015057 19 18201143464343368797
4058900 60 17970066630886121217
4073 2 18261673787756341144
44062 13 18411418444726275300
4408954 64 15651319993868949521
508706 21 18041558148049391522
513202 73 18191596452677736467
563151 40 17095249115769712073
58260988 521 17895774919683508145
59755656 520 17967248694099546673
6371380 46 18334575732918744329
6431902 208 18337675325829570214
6669772 16 18338799988442999175
6698420 124 18272934895479967961
70251023 43 17766268061604722867

> <PUBCHEM_SHAPE_MULTIPOLES>
637.5
17.88
5.25
1.94
18.76
2.41
-1.23
-4.64
5.1
-5.92
0.05
-2.56
3.34
1.17

> <PUBCHEM_SHAPE_SELFOVERLAP>
1374.974

> <PUBCHEM_SHAPE_VOLUME>
354.6

> <PUBCHEM_COORDINATE_TYPE>
2
5
10

$$$$
58557659
  -OEChem-11282412143D

 46 49  0     1  0  0  0  0  0999 V2000
    7.0564    1.0451    0.3037 F   0  0  0  0  0  0  0  0  0  0  0  0
    5.0779    1.7350   -0.3001 F   0  0  0  0  0  0  0  0  0  0  0  0
    5.3970    0.9503    1.7150 F   0  0  0  0  0  0  0  0  0  0  0  0
    3.4522   -0.1070   -2.0595 O   0  0  0  0  0  0  0  0  0  0  0  0
    1.7853   -0.9562   -0.7095 N   0  0  0  0  0  0  0  0  0  0  0  0
   -2.4808    0.6729   -0.1420 N   0  0  0  0  0  0  0  0  0  0  0  0
   -1.4529    2.5652    0.4191 N   0  0  0  0  0  0  0  0  0  0  0  0
    4.0037   -0.8869    0.0377 N   0  0  0  0  0  0  0  0  0  0  0  0
   -5.0272    1.8052    0.5097 N   0  0  0  0  0  0  0  0  0  0  0  0
   -5.8198   -0.3813   -0.1766 N   0  0  0  0  0  0  0  0  0  0  0  0
   -0.1814   -1.9005    0.2101 C   0  0  1  0  0  0  0  0  0  0  0  0
   -0.5912   -0.8776   -0.8755 C   0  0  2  0  0  0  0  0  0  0  0  0
    1.2708   -1.5411    0.5271 C   0  0  0  0  0  0  0  0  0  0  0  0
    0.7138   -0.7325   -1.6742 C   0  0  0  0  0  0  0  0  0  0  0  0
   -1.0624   -1.9816    1.4464 C   0  0  0  0  0  0  0  0  0  0  0  0
   -1.1602    0.4330   -0.3576 C   0  0  0  0  0  0  0  0  0  0  0  0
    3.1068   -0.6150   -0.9891 C   0  0  0  0  0  0  0  0  0  0  0  0
   -0.5354   -3.0070    2.4286 C   0  0  0  0  0  0  0  0  0  0  0  0
   -0.5431    1.6171   -0.0037 C   0  0  0  0  0  0  0  0  0  0  0  0
   -2.6140    1.9617    0.3231 C   0  0  0  0  0  0  0  0  0  0  0  0
   -3.6413   -0.0892   -0.2930 C   0  0  0  0  0  0  0  0  0  0  0  0
   -4.8269    0.5351    0.0445 C   0  0  0  0  0  0  0  0  0  0  0  0
   -3.9229    2.5006    0.6428 C   0  0  0  0  0  0  0  0  0  0  0  0
   -3.8896   -1.3950   -0.7255 C   0  0  0  0  0  0  0  0  0  0  0  0
    5.4135   -0.5931   -0.0741 C   0  0  0  0  0  0  0  0  0  0  0  0
   -5.2610   -1.5537   -0.6437 C   0  0  0  0  0  0  0  0  0  0  0  0
    5.7328    0.7966    0.4164 C   0  0  0  0  0  0  0  0  0  0  0  0
   -0.1755   -2.8894   -0.2733 H   0  0  0  0  0  0  0  0  0  0  0  0
   -1.3228   -1.3143   -1.5605 H   0  0  0  0  0  0  0  0  0  0  0  0
    1.3573   -0.7848    1.3151 H   0  0  0  0  0  0  0  0  0  0  0  0
    1.8638   -2.4189    0.8022 H   0  0  0  0  0  0  0  0  0  0  0  0
    0.7997   -1.5250   -2.4275 H   0  0  0  0  0  0  0  0  0  0  0  0
    0.8355    0.2322   -2.1770 H   0  0  0  0  0  0  0  0  0  0  0  0
   -1.1251   -1.0147    1.9575 H   0  0  0  0  0  0  0  0  0  0  0  0
   -2.0780   -2.2707    1.1644 H   0  0  0  0  0  0  0  0  0  0  0  0
    0.4337   -2.7138    2.8436 H   0  0  0  0  0  0  0  0  0  0  0  0
   -1.2308   -3.1131    3.2679 H   0  0  0  0  0  0  0  0  0  0  0  0
   -0.4277   -3.9899    1.9584 H   0  0  0  0  0  0  0  0  0  0  0  0
    0.5137    1.8418   -0.0279 H   0  0  0  0  0  0  0  0  0  0  0  0
    3.6735   -1.2737    0.9144 H   0  0  0  0  0  0  0  0  0  0  0  0
   -3.9879    3.5366    1.0125 H   0  0  0  0  0  0  0  0  0  0  0  0
   -3.2067   -2.1615   -1.0575 H   0  0  0  0  0  0  0  0  0  0  0  0
    5.9479   -1.3360    0.5262 H   0  0  0  0  0  0  0  0  0  0  0  0
    5.7292   -0.7075   -1.1161 H   0  0  0  0  0  0  0  0  0  0  0  0
   -6.8066   -0.2269   -0.0230 H   0  0  0  0  0  0  0  0  0  0  0  0
   -5.8946   -2.3985   -0.8747 H   0  0  0  0  0  0  0  0  0  0  0  0
  1 27  1  0  0  0  0
  2 27  1  0  0  0  0
  3 27  1  0  0  0  0
  4 17  2  0  0  0  0
  5 13  1  0  0  0  0
  5 14  1  0  0  0  0
  5 17  1  0  0  0  0
  6 16  1  0  0  0  0
  6 20  1  0  0  0  0
  6 21  1  0  0  0  0
  7 19  1  0  0  0  0
  7 20  2  0  0  0  0
  8 17  1  0  0  0  0
  8 25  1  0  0  0  0
  8 40  1  0  0  0  0
  9 22  1  0  0  0  0
  9 23  2  0  0  0  0
 10 22  1  0  0  0  0
 10 26  1  0  0  0  0
 10 45  1  0  0  0  0
 11 12  1  0  0  0  0
 11 13  1  0  0  0  0
 11 15  1  0  0  0  0
 11 28  1  0  0  0  0
 12 14  1  0  0  0  0
 12 16  1  0  0  0  0
 12 29  1  0  0  0  0
 13 30  1  0  0  0  0
 13 31  1  0  0  0  0
 14 32  1  0  0  0  0
 14 33  1  0  0  0  0
 15 18  1  0  0  0  0
 15 34  1  0  0  0  0
 15 35  1  0  0  0  0
 16 19  2  0  0  0  0
 18 36  1  0  0  0  0
 18 37  1  0  0  0  0
 18 38  1  0  0  0  0
 19 39  1  0  0  0  0
 20 23  1  0  0  0  0
 21 22  2  0  0  0  0
 21 24  1  0  0  0  0
 23 41  1  0  0  0  0
 24 26  2  0  0  0  0
 24 42  1  0  0  0  0
 25 27  1  0  0  0  0
 25 43  1  0  0  0  0
 25 44  1  0  0  0  0
 26 46  1  0  0  0  0
M  END
> <PUBCHEM_COMPOUND_CID>
58557659

> <PUBCHEM_CONFORMER_RMSD>
0.8

> <PUBCHEM_CONFORMER_DIVERSEORDER>
1
13
24
10
22
8
23
20
5
16
14
19
6
18
2
9
25
7
15
12
21
11
4
17
3

> <PUBCHEM_MMFF94_PARTIAL_CHARGES>
30
1 -0.34
10 0.03
12 0.18
13 0.3
14 0.3
16 -0.33
17 0.69
19 0.08
2 -0.34
20 0.1
21 -0.08
22 -0.03
23 0.47
24 -0.15
25 0.3
26 -0.3
27 1.02
3 -0.34
39 0.15
4 -0.57
40 0.37
41 0.06
42 0.15
45 0.27
46 0.15
5 -0.66
6 0.38
7 -0.57
8 -0.73
9 -0.58

> <PUBCHEM_EFFECTIVE_ROTOR_COUNT>
7

> <PUBCHEM_PHARMACOPHORE_FEATURES>
11
1 10 cation
1 10 donor
1 18 hydrophobe
1 4 acceptor
1 8 donor
1 9 acceptor
3 6 7 20 cation
5 10 21 22 24 26 rings
5 5 11 12 13 14 rings
5 6 7 16 19 20 rings
6 6 9 20 21 22 23 rings

> <PUBCHEM_HEAVY_ATOM_COUNT>
27

> <PUBCHEM_ATOM_DEF_STEREO_COUNT>
2

> <PUBCHEM_ATOM_UDEF_STEREO_COUNT>
0

> <PUBCHEM_BOND_DEF_STEREO_COUNT>
0

> <PUBCHEM_BOND_UDEF_STEREO_COUNT>
0

> <PUBCHEM_ISOTOPIC_ATOM_COUNT>
0

> <PUBCHEM_COMPONENT_COUNT>
1

> <PUBCHEM_CACTVS_TAUTO_COUNT>
6

> <PUBCHEM_CONFORMER_ID>
037D84DB00000001

> <PUBCHEM_MMFF94_ENERGY>
49.1916

> <PUBCHEM_FEATURE_SELFOVERLAP>
56.055

> <PUBCHEM_SHAPE_FINGERPRINT>
10906281 52 18338818782612666156
11524674 6 13623524675620209432
11578080 2 12606310321184730745
11796584 16 11458422423580146928
121448 382 18187369826758619971
12236239 1 18259984838346840903
12633257 1 17530968012268868782
13402501 40 18202841076443130712
13533116 47 18261671472700676082
13583140 156 15070062011349128708
13914758 101 16370996374437632677
14341114 328 18338794511762980513
14739800 52 18340754975835215258
14787075 74 18409445894995981931
14840074 17 16588021308111967250
17349148 13 17458637682885066375
17980427 23 18408047316253164797
20511986 3 18115859716665406309
23352939 185 16487258772117539411
23402539 116 18410573968156491047
23559900 14 18263664887076002222
23622692 88 16950284018613031062
2838139 119 17917418827176542284
2916195 48 18272647944113304208
34797466 226 17275109418222110245
34934 24 18267022748663861925
392239 28 18262531380723477891
4325135 7 18272650160031618596
5104073 3 18340212864651865163
59554788 281 17822303365638496131
7226269 152 18260546757560773963
9981440 41 18409455786301085290

> <PUBCHEM_SHAPE_MULTIPOLES>
498.07
13.8
2.71
1.43
14.79
0.01
0.22
5.16
0.54
-1.87
1.44
0.71
-0.83
-0.31

> <PUBCHEM_SHAPE_SELFOVERLAP>
1088.087

> <PUBCHEM_SHAPE_VOLUME>
275.3

> <PUBCHEM_COORDINATE_TYPE>
2
5
10

$$$$
11626560
  -OEChem-11282412143D

 52 55  0     1  0  0  0  0  0999 V2000
   -2.3827    0.9514    2.6113 Cl  0  0  0  0  0  0  0  0  0  0  0  0
   -3.7086    1.7695   -2.6109 Cl  0  0  0  0  0  0  0  0  0  0  0  0
   -0.7524    3.3547    2.1900 F   0  0  0  0  0  0  0  0  0  0  0  0
   -3.3546   -0.7214   -0.8802 O   0  0  0  0  0  0  0  0  0  0  0  0
    3.1450   -0.8210   -0.1106 N   0  0  0  0  0  0  0  0  0  0  0  0
    6.8931    1.2551   -0.2046 N   0  0  0  0  0  0  0  0  0  0  0  0
    3.5334   -2.1014   -0.2132 N   0  0  0  0  0  0  0  0  0  0  0  0
   -1.9139   -3.7158    0.6449 N   0  0  0  0  0  0  0  0  0  0  0  0
   -4.1774   -3.1226    0.2446 N   0  0  0  0  0  0  0  0  0  0  0  0
    4.1533    0.2441   -0.1041 C   0  0  0  0  0  0  0  0  0  0  0  0
    4.9524    0.3128   -1.4150 C   0  0  0  0  0  0  0  0  0  0  0  0
    5.1027    0.1550    1.1009 C   0  0  0  0  0  0  0  0  0  0  0  0
    6.0043    1.4202   -1.3555 C   0  0  0  0  0  0  0  0  0  0  0  0
    6.1485    1.2689    1.0553 C   0  0  0  0  0  0  0  0  0  0  0  0
    1.7967   -0.6541   -0.0195 C   0  0  0  0  0  0  0  0  0  0  0  0
    1.2612   -1.9181   -0.0664 C   0  0  0  0  0  0  0  0  0  0  0  0
    2.3767   -2.7687   -0.1856 C   0  0  0  0  0  0  0  0  0  0  0  0
   -0.1389   -2.2016    0.0006 C   0  0  0  0  0  0  0  0  0  0  0  0
   -1.0806   -1.2986   -0.4853 C   0  0  0  0  0  0  0  0  0  0  0  0
   -0.6061   -3.3860    0.5514 C   0  0  0  0  0  0  0  0  0  0  0  0
   -2.4352   -1.6021   -0.4068 C   0  0  0  0  0  0  0  0  0  0  0  0
   -3.8537    0.2550    0.0347 C   0  0  1  0  0  0  0  0  0  0  0  0
   -2.7967   -2.8128    0.1621 C   0  0  0  0  0  0  0  0  0  0  0  0
   -2.9624    1.4736   -0.0018 C   0  0  0  0  0  0  0  0  0  0  0  0
   -5.2981    0.5909   -0.3195 C   0  0  0  0  0  0  0  0  0  0  0  0
   -2.2627    1.8469    1.1386 C   0  0  0  0  0  0  0  0  0  0  0  0
   -2.8524    2.2068   -1.1765 C   0  0  0  0  0  0  0  0  0  0  0  0
   -1.4393    2.9723    1.1038 C   0  0  0  0  0  0  0  0  0  0  0  0
   -2.0291    3.3323   -1.2113 C   0  0  0  0  0  0  0  0  0  0  0  0
   -1.3226    3.7150   -0.0712 C   0  0  0  0  0  0  0  0  0  0  0  0
    3.5861    1.1814   -0.0114 H   0  0  0  0  0  0  0  0  0  0  0  0
    4.2750    0.4930   -2.2586 H   0  0  0  0  0  0  0  0  0  0  0  0
    5.4462   -0.6481   -1.6108 H   0  0  0  0  0  0  0  0  0  0  0  0
    5.6090   -0.8192    1.1157 H   0  0  0  0  0  0  0  0  0  0  0  0
    4.5316    0.2239    2.0348 H   0  0  0  0  0  0  0  0  0  0  0  0
    6.6040    1.4028   -2.2721 H   0  0  0  0  0  0  0  0  0  0  0  0
    5.5212    2.4039   -1.3153 H   0  0  0  0  0  0  0  0  0  0  0  0
    5.6716    2.2464    1.1957 H   0  0  0  0  0  0  0  0  0  0  0  0
    6.8527    1.1418    1.8848 H   0  0  0  0  0  0  0  0  0  0  0  0
    7.3815    0.3634   -0.2898 H   0  0  0  0  0  0  0  0  0  0  0  0
    1.3507    0.3275    0.0754 H   0  0  0  0  0  0  0  0  0  0  0  0
    2.4028   -3.8472   -0.2562 H   0  0  0  0  0  0  0  0  0  0  0  0
   -0.7761   -0.3634   -0.9484 H   0  0  0  0  0  0  0  0  0  0  0  0
    0.0674   -4.1364    0.9553 H   0  0  0  0  0  0  0  0  0  0  0  0
   -3.9087   -0.2005    1.0270 H   0  0  0  0  0  0  0  0  0  0  0  0
   -5.5452    0.4706   -1.3766 H   0  0  0  0  0  0  0  0  0  0  0  0
   -5.6041    1.5811    0.0338 H   0  0  0  0  0  0  0  0  0  0  0  0
   -5.9541   -0.1349    0.1799 H   0  0  0  0  0  0  0  0  0  0  0  0
   -1.9267    3.9218   -2.1189 H   0  0  0  0  0  0  0  0  0  0  0  0
   -4.8029   -2.7141   -0.4389 H   0  0  0  0  0  0  0  0  0  0  0  0
   -4.4266   -4.0140    0.6549 H   0  0  0  0  0  0  0  0  0  0  0  0
   -0.6812    4.5910   -0.0980 H   0  0  0  0  0  0  0  0  0  0  0  0
  1 26  1  0  0  0  0
  2 27  1  0  0  0  0
  3 28  1  0  0  0  0
  4 21  1  0  0  0  0
  4 22  1  0  0  0  0
  5  7  1  0  0  0  0
  5 10  1  0  0  0  0
  5 15  1  0  0  0  0
  6 13  1  0  0  0  0
  6 14  1  0  0  0  0
  6 40  1  0  0  0  0
  7 17  2  0  0  0  0
  8 20  2  0  0  0  0
  8 23  1  0  0  0  0
  9 23  1  0  0  0  0
  9 50  1  0  0  0  0
  9 51  1  0  0  0  0
 10 11  1  0  0  0  0
 10 12  1  0  0  0  0
 10 31  1  0  0  0  0
 11 13  1  0  0  0  0
 11 32  1  0  0  0  0
 11 33  1  0  0  0  0
 12 14  1  0  0  0  0
 12 34  1  0  0  0  0
 12 35  1  0  0  0  0
 13 36  1  0  0  0  0
 13 37  1  0  0  0  0
 14 38  1  0  0  0  0
 14 39  1  0  0  0  0
 15 16  2  0  0  0  0
 15 41  1  0  0  0  0
 16 17  1  0  0  0  0
 16 18  1  0  0  0  0
 17 42  1  0  0  0  0
 18 19  2  0  0  0  0
 18 20  1  0  0  0  0
 19 21  1  0  0  0  0
 19 43  1  0  0  0  0
 20 44  1  0  0  0  0
 21 23  2  0  0  0  0
 22 24  1  0  0  0  0
 22 25  1  0  0  0  0
 22 45  1  0  0  0  0
 24 26  1  0  0  0  0
 24 27  2  0  0  0  0
 25 46  1  0  0  0  0
 25 47  1  0  0  0  0
 25 48  1  0  0  0  0
 26 28  2  0  0  0  0
 27 29  1  0  0  0  0
 28 30  1  0  0  0  0
 29 30  2  0  0  0  0
 29 49  1  0  0  0  0
 30 52  1  0  0  0  0
M  END
> <PUBCHEM_COMPOUND_CID>
11626560

> <PUBCHEM_CONFORMER_RMSD>
0.8

> <PUBCHEM_CONFORMER_DIVERSEORDER>
4
150
145
189
385
377
234
197
167
396
175
349
239
315
346
101
176
164
388
154
181
305
338
283
275
337
252
249
384
207
241
372
350
190
177
126
343
297
339
373
75
165
331
231
363
41
128
130
202
72
311
23
271
317
333
211
87
49
193
299
217
237
371
132
191
345
374
169
209
98
358
149
383
320
8
269
131
397
218
93
290
144
92
359
362
307
136
84
375
185
57
108
52
325
227
157
76
355
171
129
160
110
357
335
260
328
280
183
244
312
213
141
368
296
10
35
71
206
382
221
303
378
168
62
73
336
379
199
386
91
155
215
42
376
302
352
140
48
369
254
392
51
235
278
250
319
173
115
179
198
389
219
365
69
323
266
272
40
265
233
186
100
178
192
277
347
18
256
139
137
119
38
74
263
159
308
89
43
96
9
30
314
34
222
116
243
61
399
236
125
55
102
390
381
284
184
88
195
85
205
214
151
321
21
24
172
66
120
148
103
29
15
356
135
342
83
133
259
162
298
81
204
201
117
330
200
332
292
188
5
329
158
261
142
109
80
300
106
282
3
370
387
341
226
86
14
313
156
225
240
394
232
245
90
104
46
324
220
82
121
318
79
281
105
208
7
327
380
286
37
361
124
63
64
32
20
295
68
123
138
224
310
247
322
367
47
153
285
45
16
127
26
289
348
393
152
170
143
19
230
187
287
273
301
25
174
246
264
364
257
161
11
33
258
304
340
294
147
306
111
276
212
6
182
13
146
122
134
242
344
39
229
60
28
253
67
56
351
112
196
99
54
77
50
27
251
288
113
59
238
53
1
395
316
31
398
279
194
366
17
65
334
326
44
262
223
268
107
248
353
203
255
210
291
360
216
274
78
2
114
95
354
267
12
118
391
97
309
228
94
163
180
293
270
58
166
70
36
22

> <PUBCHEM_MMFF94_PARTIAL_CHARGES>
36
1 -0.18
10 0.26
13 0.27
14 0.27
15 -0.3
16 -0.05
17 0.14
18 0.05
19 -0.15
2 -0.18
20 0.16
21 0.08
22 0.42
23 0.41
24 -0.14
26 0.18
27 0.18
28 0.19
29 -0.15
3 -0.19
30 -0.15
4 -0.36
40 0.36
41 0.15
42 0.15
43 0.15
44 0.15
49 0.15
5 0.31
50 0.4
51 0.4
52 0.15
6 -0.9
7 -0.71
8 -0.62
9 -0.9

> <PUBCHEM_EFFECTIVE_ROTOR_COUNT>
6.2

> <PUBCHEM_PHARMACOPHORE_FEATURES>
11
1 4 acceptor
1 6 cation
1 6 donor
1 7 acceptor
1 8 acceptor
1 9 cation
1 9 donor
5 5 7 15 16 17 rings
6 24 26 27 28 29 30 rings
6 6 10 11 12 13 14 rings
6 8 18 19 20 21 23 rings

> <PUBCHEM_HEAVY_ATOM_COUNT>
30

> <PUBCHEM_ATOM_DEF_STEREO_COUNT>
1

> <PUBCHEM_ATOM_UDEF_STEREO_COUNT>
0

> <PUBCHEM_BOND_DEF_STEREO_COUNT>
0

> <PUBCHEM_BOND_UDEF_STEREO_COUNT>
0

> <PUBCHEM_ISOTOPIC_ATOM_COUNT>
0

> <PUBCHEM_COMPONENT_COUNT>
1

> <PUBCHEM_CACTVS_TAUTO_COUNT>
2

> <PUBCHEM_CONFORMER_ID>
00B1684000000004

> <PUBCHEM_MMFF94_ENERGY>
82.3737

> <PUBCHEM_FEATURE_SELFOVERLAP>
55.822

> <PUBCHEM_SHAPE_FINGERPRINT>
100830 39 18409727358000667056
10290309 65 18336544915764182655
10670039 82 18338811099876237212
11135609 187 18191856839465633869
11434127 23 18131356272276593996
11607047 403 14977183915832518785
12107183 9 17898269642816021218
12156800 1 16194020168220539873
12596602 18 17168142360314732018
12788726 201 18261105331058923170
12978246 48 18333170561791283212
13402501 40 18200868590831067064
13560911 43 17824541005456488572
13561361 72 18195795487568401960
13947920 24 18410287008395734465
13994607 96 18341886385905400413
14251757 5 18337392742265519848
14394314 77 18341336617613746785
15001296 14 18044096976354223316
15347590 135 17895481460983638554
15463212 79 18187642475007838530
15513586 35 17608116439559749204
15776043 110 17678446469081309434
16989378 47 17125304288350052453
16992787 43 18338790101945423997
21049683 271 17903361742693019735
21095088 737 18269830930524159045
22907989 373 18129090126912819661
22956985 138 16819685409797109339
3117164 225 18045766911368400514
469060 322 18263943178964553051
4756261 7 17983606051662571913
50150288 127 16629417839008694817
550186 7 18342465867557754910
6299153 45 18261104120764082970
6700243 42 17622204503521196302
7808743 9 18335416876720468202
9980921 221 18126318331921087644
9981440 41 18115304458697816515

> <PUBCHEM_SHAPE_MULTIPOLES>
583.08
12.56
4.96
1.7
23.08
1.01
-0.29
-5.28
2.18
-4.04
-0.5
-0.99
-1.58
0.45

> <PUBCHEM_SHAPE_SELFOVERLAP>
1248.058

> <PUBCHEM_SHAPE_VOLUME>
326

> <PUBCHEM_COORDINATE_TYPE>
2
5
10

$$$$
9823820
  -OEChem-11282412143D

 49 52  0     0  0  0  0  0  0999 V2000
   -2.0471    0.9213   -2.4341 Cl  0  0  0  0  0  0  0  0  0  0  0  0
   -5.7296    0.0770    1.3676 O   0  0  0  0  0  0  0  0  0  0  0  0
    0.7053   -0.6121    1.5420 O   0  0  0  0  0  0  0  0  0  0  0  0
    6.4907    0.5341   -0.9293 O   0  0  0  0  0  0  0  0  0  0  0  0
    4.6138    3.2397   -0.0123 O   0  0  0  0  0  0  0  0  0  0  0  0
   -6.6258    0.8009   -0.6345 N   0  0  0  0  0  0  0  0  0  0  0  0
   -4.3370    0.5259   -0.4745 N   0  0  0  0  0  0  0  0  0  0  0  0
    3.2238   -2.9144   -0.8142 N   0  0  0  0  0  0  0  0  0  0  0  0
    5.6047    2.3750    1.8664 N   0  0  0  0  0  0  0  0  0  0  0  0
   -7.9936    0.7972   -0.2017 C   0  0  0  0  0  0  0  0  0  0  0  0
   -8.8057   -0.4569   -0.2419 C   0  0  0  0  0  0  0  0  0  0  0  0
   -9.1070    0.6663   -1.1903 C   0  0  0  0  0  0  0  0  0  0  0  0
   -5.5670    0.4311    0.2021 C   0  0  0  0  0  0  0  0  0  0  0  0
   -3.0559    0.2462    0.0103 C   0  0  0  0  0  0  0  0  0  0  0  0
   -1.9258    0.3900   -0.7947 C   0  0  0  0  0  0  0  0  0  0  0  0
   -2.9219   -0.1866    1.3295 C   0  0  0  0  0  0  0  0  0  0  0  0
    2.7926   -0.8500    0.3520 C   0  0  0  0  0  0  0  0  0  0  0  0
   -0.5479   -0.3271    1.0307 C   0  0  0  0  0  0  0  0  0  0  0  0
    1.5509   -1.3506    0.7662 C   0  0  0  0  0  0  0  0  0  0  0  0
    3.6085   -1.6770   -0.4482 C   0  0  0  0  0  0  0  0  0  0  0  0
   -0.6618    0.1012   -0.2804 C   0  0  0  0  0  0  0  0  0  0  0  0
   -1.6580   -0.4756    1.8438 C   0  0  0  0  0  0  0  0  0  0  0  0
    3.2258    0.4363    0.7153 C   0  0  0  0  0  0  0  0  0  0  0  0
    4.4642    0.9087    0.2901 C   0  0  0  0  0  0  0  0  0  0  0  0
    5.2730    0.0996   -0.4981 C   0  0  0  0  0  0  0  0  0  0  0  0
    4.8419   -1.1793   -0.8593 C   0  0  0  0  0  0  0  0  0  0  0  0
    1.1518   -2.6251    0.3906 C   0  0  0  0  0  0  0  0  0  0  0  0
    2.0179   -3.3599   -0.3933 C   0  0  0  0  0  0  0  0  0  0  0  0
    4.8907    2.2454    0.6798 C   0  0  0  0  0  0  0  0  0  0  0  0
    6.5285    1.2186   -2.1796 C   0  0  0  0  0  0  0  0  0  0  0  0
   -8.1667    1.4730    0.6299 H   0  0  0  0  0  0  0  0  0  0  0  0
   -8.3560   -1.3534   -0.6510 H   0  0  0  0  0  0  0  0  0  0  0  0
   -9.5019   -0.6342    0.5685 H   0  0  0  0  0  0  0  0  0  0  0  0
  -10.0071    1.2437   -1.0183 H   0  0  0  0  0  0  0  0  0  0  0  0
   -8.8602    0.5216   -2.2350 H   0  0  0  0  0  0  0  0  0  0  0  0
   -6.4253    1.0937   -1.5862 H   0  0  0  0  0  0  0  0  0  0  0  0
   -4.3794    0.8371   -1.4419 H   0  0  0  0  0  0  0  0  0  0  0  0
   -3.7385   -0.3260    2.0220 H   0  0  0  0  0  0  0  0  0  0  0  0
    0.2141    0.2351   -0.9095 H   0  0  0  0  0  0  0  0  0  0  0  0
   -1.5537   -0.8127    2.8709 H   0  0  0  0  0  0  0  0  0  0  0  0
    2.5989    1.0774    1.3323 H   0  0  0  0  0  0  0  0  0  0  0  0
    5.4893   -1.8004   -1.4768 H   0  0  0  0  0  0  0  0  0  0  0  0
    0.2035   -3.0495    0.7017 H   0  0  0  0  0  0  0  0  0  0  0  0
    1.7609   -4.3637   -0.7154 H   0  0  0  0  0  0  0  0  0  0  0  0
    7.5512    1.5666   -2.3481 H   0  0  0  0  0  0  0  0  0  0  0  0
    6.2532    0.5386   -2.9920 H   0  0  0  0  0  0  0  0  0  0  0  0
    5.8611    2.0853   -2.1770 H   0  0  0  0  0  0  0  0  0  0  0  0
    5.9209    3.2836    2.1885 H   0  0  0  0  0  0  0  0  0  0  0  0
    5.8334    1.5753    2.4482 H   0  0  0  0  0  0  0  0  0  0  0  0
  1 15  1  0  0  0  0
  2 13  2  0  0  0  0
  3 18  1  0  0  0  0
  3 19  1  0  0  0  0
  4 25  1  0  0  0  0
  4 30  1  0  0  0  0
  5 29  2  0  0  0  0
  6 10  1  0  0  0  0
  6 13  1  0  0  0  0
  6 36  1  0  0  0  0
  7 13  1  0  0  0  0
  7 14  1  0  0  0  0
  7 37  1  0  0  0  0
  8 20  2  0  0  0  0
  8 28  1  0  0  0  0
  9 29  1  0  0  0  0
  9 48  1  0  0  0  0
  9 49  1  0  0  0  0
 10 11  1  0  0  0  0
 10 12  1  0  0  0  0
 10 31  1  0  0  0  0
 11 12  1  0  0  0  0
 11 32  1  0  0  0  0
 11 33  1  0  0  0  0
 12 34  1  0  0  0  0
 12 35  1  0  0  0  0
 14 15  2  0  0  0  0
 14 16  1  0  0  0  0
 15 21  1  0  0  0  0
 16 22  2  0  0  0  0
 16 38  1  0  0  0  0
 17 19  2  0  0  0  0
 17 20  1  0  0  0  0
 17 23  1  0  0  0  0
 18 21  2  0  0  0  0
 18 22  1  0  0  0  0
 19 27  1  0  0  0  0
 20 26  1  0  0  0  0
 21 39  1  0  0  0  0
 22 40  1  0  0  0  0
 23 24  2  0  0  0  0
 23 41  1  0  0  0  0
 24 25  1  0  0  0  0
 24 29  1  0  0  0  0
 25 26  2  0  0  0  0
 26 42  1  0  0  0  0
 27 28  2  0  0  0  0
 27 43  1  0  0  0  0
 28 44  1  0  0  0  0
 30 45  1  0  0  0  0
 30 46  1  0  0  0  0
 30 47  1  0  0  0  0
M  END
> <PUBCHEM_COMPOUND_CID>
9823820

> <PUBCHEM_CONFORMER_RMSD>
1

> <PUBCHEM_CONFORMER_DIVERSEORDER>
1
54
10
80
21
88
37
76
41
77
101
71
84
78
25
29
23
9
57
82
51
61
40
48
15
75
83
81
99
28
11
74
79
42
87
12
70
14
35
93
32
95
26
64
65
102
63
52
56
6
5
90
98
4
94
73
16
46
19
55
91
27
49
86
59
7
43
47
24
53
31
89
72
8
62
38
22
68
18
92
58
69
39
2
60
36
96
30
20
85
13
33
44
66
67
97
3
34
50
17
100
45
103

> <PUBCHEM_MMFF94_PARTIAL_CHARGES>
45
1 -0.18
10 0.05
11 -0.2
12 -0.2
13 0.69
14 0.12
15 0.18
16 -0.15
18 0.08
19 0.08
2 -0.57
20 0.31
21 -0.15
22 -0.15
23 -0.15
24 0.09
25 0.08
26 -0.15
27 -0.15
28 0.16
29 0.54
3 -0.17
30 0.28
31 0.1
32 0.1
33 0.1
34 0.1
35 0.1
36 0.37
37 0.37
38 0.15
39 0.15
4 -0.36
40 0.15
41 0.15
42 0.15
43 0.15
44 0.15
48 0.37
49 0.37
5 -0.57
6 -0.58
7 -0.55
8 -0.62
9 -0.8

> <PUBCHEM_EFFECTIVE_ROTOR_COUNT>
8.6

> <PUBCHEM_PHARMACOPHORE_FEATURES>
11
1 2 acceptor
1 3 acceptor
1 4 acceptor
1 5 acceptor
1 6 donor
1 7 donor
1 8 acceptor
1 9 donor
6 14 15 16 18 21 22 rings
6 17 20 23 24 25 26 rings
6 8 17 19 20 27 28 rings

> <PUBCHEM_HEAVY_ATOM_COUNT>
30

> <PUBCHEM_ATOM_DEF_STEREO_COUNT>
0

> <PUBCHEM_ATOM_UDEF_STEREO_COUNT>
0

> <PUBCHEM_BOND_DEF_STEREO_COUNT>
0

> <PUBCHEM_BOND_UDEF_STEREO_COUNT>
0

> <PUBCHEM_ISOTOPIC_ATOM_COUNT>
0

> <PUBCHEM_COMPONENT_COUNT>
1

> <PUBCHEM_CACTVS_TAUTO_COUNT>
6

> <PUBCHEM_CONFORMER_ID>
0095E64C00000001

> <PUBCHEM_MMFF94_ENERGY>
115.6562

> <PUBCHEM_FEATURE_SELFOVERLAP>
55.903

> <PUBCHEM_SHAPE_FINGERPRINT>
10 15 15502375630169344761
10165383 225 18334298678422918550
10299344 5 17489586745680916283
10411042 1 17908424654980330846
10693767 8 17344365367309012558
11181472 205 11097854039170966495
11211813 74 18261670382037296549
11408170 132 18059569136814146929
11719270 70 14707206591994931209
11991303 11 17203313517385495333
12236239 1 17275108288508509323
12730499 353 18409455773711309570
13165053 68 18054220206097322087
13685833 64 10735879465140226528
14117953 113 18411704318435961708
150020 25 18335145289048798631
15183329 4 15769777966124853601
173720 79 14418136197454541595
18365409 1 18338799052314598447
20157964 124 18413670209948074537
20554085 129 16805319994453967841
20771845 171 17060063627263799989
21033648 29 18115306804224817344
21049683 118 18188475987006639154
21150785 3 18413107247985463959
21267235 1 14836402528447613427
21360443 126 18260269672452609715
21521721 280 18410576167965821211
21792934 111 16588289546321270297
221357 26 18343305834375051976
23516275 137 17702403783948204855
23522609 53 17274281482420547161
24771293 8 17530967965119590101
255183 451 17700143097440599710
27425 322 17845365721331985892
3004659 81 16128654137092268826
34797466 226 18412824660416908447
3633792 109 18410855418307519865
4093350 32 18410009901991367159
439807 62 14045748110296391796
504579 68 17917715695152134917
6327066 14 18194964265547156976
70251023 43 17986114011466811282

> <PUBCHEM_SHAPE_MULTIPOLES>
575.85
22.4
2.55
1.67
44.51
0.88
-0.22
-10.63
-6.21
-5.56
-0.12
-0.7
-0.52
1.57

> <PUBCHEM_SHAPE_SELFOVERLAP>
1249.829

> <PUBCHEM_SHAPE_VOLUME>
315.3

> <PUBCHEM_COORDINATE_TYPE>
2
5
10

$$$$
24767976
  -OEChem-11282412143D

 56 60  0     0  0  0  0  0  0999 V2000
    4.2791   -2.2752   -1.7966 O   0  0  0  0  0  0  0  0  0  0  0  0
    0.0898    3.4378    0.8556 O   0  0  0  0  0  0  0  0  0  0  0  0
   -3.0841    0.0633    1.6079 O   0  0  0  0  0  0  0  0  0  0  0  0
    5.3066   -1.1648    0.0145 N   0  0  0  0  0  0  0  0  0  0  0  0
    4.6419    0.7072    1.3808 N   0  0  0  0  0  0  0  0  0  0  0  0
    2.6762    1.1367    0.4192 N   0  0  0  0  0  0  0  0  0  0  0  0
    1.4776    1.7297    0.1567 N   0  0  0  0  0  0  0  0  0  0  0  0
   -3.3548    0.4426   -0.6962 N   0  0  0  0  0  0  0  0  0  0  0  0
   -4.7069   -2.3239    1.3197 N   0  0  0  0  0  0  0  0  0  0  0  0
   -5.7483   -3.1399    1.0834 N   0  0  0  0  0  0  0  0  0  0  0  0
    6.3695   -3.0639   -1.1005 C   0  0  0  0  0  0  0  0  0  0  0  0
    6.1290   -4.5436   -1.0360 C   0  0  0  0  0  0  0  0  0  0  0  0
    6.7850   -3.8394    0.1152 C   0  0  0  0  0  0  0  0  0  0  0  0
    5.2021   -2.1318   -1.0065 C   0  0  0  0  0  0  0  0  0  0  0  0
    4.4153   -0.1758    0.3561 C   0  0  0  0  0  0  0  0  0  0  0  0
    3.2078    0.0684   -0.2531 C   0  0  0  0  0  0  0  0  0  0  0  0
    3.5827    1.4906    1.4042 C   0  0  0  0  0  0  0  0  0  0  0  0
    3.2410    2.5840    2.2354 C   0  0  0  0  0  0  0  0  0  0  0  0
    1.2274    2.7200    0.9513 C   0  0  0  0  0  0  0  0  0  0  0  0
    2.0807    3.2254    2.0473 C   0  0  0  0  0  0  0  0  0  0  0  0
   -2.4232    1.4477   -0.9678 C   0  0  0  0  0  0  0  0  0  0  0  0
   -0.6976    2.9444   -0.1810 C   0  0  0  0  0  0  0  0  0  0  0  0
   -2.2759    1.9564   -2.2583 C   0  0  0  0  0  0  0  0  0  0  0  0
   -1.6341    1.9418    0.0708 C   0  0  0  0  0  0  0  0  0  0  0  0
   -4.6607   -1.2369    0.4968 C   0  0  0  0  0  0  0  0  0  0  0  0
   -1.3394    2.9590   -2.5101 C   0  0  0  0  0  0  0  0  0  0  0  0
   -0.5502    3.4530   -1.4714 C   0  0  0  0  0  0  0  0  0  0  0  0
   -3.6242   -0.1721    0.5325 C   0  0  0  0  0  0  0  0  0  0  0  0
   -5.7470   -1.3501   -0.3360 C   0  0  0  0  0  0  0  0  0  0  0  0
   -6.3801   -2.5399    0.0710 C   0  0  0  0  0  0  0  0  0  0  0  0
   -3.1076    1.4462   -3.3900 C   0  0  0  0  0  0  0  0  0  0  0  0
   -3.7754   -2.6547    2.3729 C   0  0  0  0  0  0  0  0  0  0  0  0
   -7.6022   -3.1420   -0.4880 C   0  0  0  0  0  0  0  0  0  0  0  0
    7.1555   -2.7322   -1.7714 H   0  0  0  0  0  0  0  0  0  0  0  0
    5.1172   -4.9031   -0.8933 H   0  0  0  0  0  0  0  0  0  0  0  0
    6.7475   -5.1829   -1.6543 H   0  0  0  0  0  0  0  0  0  0  0  0
    7.8446   -4.0038    0.2697 H   0  0  0  0  0  0  0  0  0  0  0  0
    6.2119   -3.7391    1.0288 H   0  0  0  0  0  0  0  0  0  0  0  0
    6.1478   -1.1777    0.5859 H   0  0  0  0  0  0  0  0  0  0  0  0
    2.6824   -0.3951   -1.0763 H   0  0  0  0  0  0  0  0  0  0  0  0
    3.9239    2.8928    3.0188 H   0  0  0  0  0  0  0  0  0  0  0  0
    1.7680    4.0665    2.6516 H   0  0  0  0  0  0  0  0  0  0  0  0
   -1.6902    1.6023    1.0949 H   0  0  0  0  0  0  0  0  0  0  0  0
   -3.8910    0.1117   -1.4930 H   0  0  0  0  0  0  0  0  0  0  0  0
   -1.2114    3.3669   -3.5093 H   0  0  0  0  0  0  0  0  0  0  0  0
    0.1766    4.2350   -1.6737 H   0  0  0  0  0  0  0  0  0  0  0  0
   -6.0472   -0.6716   -1.1218 H   0  0  0  0  0  0  0  0  0  0  0  0
   -2.8695    1.9557   -4.3303 H   0  0  0  0  0  0  0  0  0  0  0  0
   -4.1716    1.6147   -3.1933 H   0  0  0  0  0  0  0  0  0  0  0  0
   -2.9285    0.3775   -3.5485 H   0  0  0  0  0  0  0  0  0  0  0  0
   -2.7576   -2.5829    1.9815 H   0  0  0  0  0  0  0  0  0  0  0  0
   -3.9596   -3.6783    2.7109 H   0  0  0  0  0  0  0  0  0  0  0  0
   -3.9301   -1.9591    3.2010 H   0  0  0  0  0  0  0  0  0  0  0  0
   -8.0033   -2.5398   -1.3098 H   0  0  0  0  0  0  0  0  0  0  0  0
   -8.3797   -3.2226    0.2788 H   0  0  0  0  0  0  0  0  0  0  0  0
   -7.3967   -4.1447   -0.8769 H   0  0  0  0  0  0  0  0  0  0  0  0
  1 14  2  0  0  0  0
  2 19  1  0  0  0  0
  2 22  1  0  0  0  0
  3 28  2  0  0  0  0
  4 14  1  0  0  0  0
  4 15  1  0  0  0  0
  4 39  1  0  0  0  0
  5 15  1  0  0  0  0
  5 17  2  0  0  0  0
  6  7  1  0  0  0  0
  6 16  1  0  0  0  0
  6 17  1  0  0  0  0
  7 19  2  0  0  0  0
  8 21  1  0  0  0  0
  8 28  1  0  0  0  0
  8 44  1  0  0  0  0
  9 10  1  0  0  0  0
  9 25  1  0  0  0  0
  9 32  1  0  0  0  0
 10 30  2  0  0  0  0
 11 12  1  0  0  0  0
 11 13  1  0  0  0  0
 11 14  1  0  0  0  0
 11 34  1  0  0  0  0
 12 13  1  0  0  0  0
 12 35  1  0  0  0  0
 12 36  1  0  0  0  0
 13 37  1  0  0  0  0
 13 38  1  0  0  0  0
 15 16  2  0  0  0  0
 16 40  1  0  0  0  0
 17 18  1  0  0  0  0
 18 20  2  0  0  0  0
 18 41  1  0  0  0  0
 19 20  1  0  0  0  0
 20 42  1  0  0  0  0
 21 23  2  0  0  0  0
 21 24  1  0  0  0  0
 22 24  2  0  0  0  0
 22 27  1  0  0  0  0
 23 26  1  0  0  0  0
 23 31  1  0  0  0  0
 24 43  1  0  0  0  0
 25 28  1  0  0  0  0
 25 29  2  0  0  0  0
 26 27  2  0  0  0  0
 26 45  1  0  0  0  0
 27 46  1  0  0  0  0
 29 30  1  0  0  0  0
 29 47  1  0  0  0  0
 30 33  1  0  0  0  0
 31 48  1  0  0  0  0
 31 49  1  0  0  0  0
 31 50  1  0  0  0  0
 32 51  1  0  0  0  0
 32 52  1  0  0  0  0
 32 53  1  0  0  0  0
 33 54  1  0  0  0  0
 33 55  1  0  0  0  0
 33 56  1  0  0  0  0
M  END
> <PUBCHEM_COMPOUND_CID>
24767976

> <PUBCHEM_CONFORMER_RMSD>
1

> <PUBCHEM_CONFORMER_DIVERSEORDER>
1
23
139
49
113
73
12
97
91
92
115
93
104
114
136
96
47
72
33
118
79
35
32
137
78
120
77
57
117
112
52
43
66
55
56
65
126
128
125
83
134
138
101
109
82
26
27
132
67
89
34
124
130
19
106
41
108
61
48
15
71
63
45
111
14
58
29
123
40
122
68
107
31
24
90
110
62
81
102
21
80
22
42
105
135
36
69
87
99
133
116
9
54
53
94
84
38
7
39
60
37
30
44
13
98
103
88
95
127
64
131
74
85
46
121
50
59
5
86
28
70
4
18
119
3
129
17
100
11
6
75
16
76
25
10
2
51
8
20

> <PUBCHEM_MMFF94_PARTIAL_CHARGES>
47
1 -0.57
10 -0.71
11 -0.1
12 -0.2
13 -0.2
14 0.63
15 0.29
16 -0.3
17 0.14
18 -0.11
19 0.59
2 -0.23
20 -0.14
21 0.12
22 0.08
23 -0.14
24 -0.15
25 -0.24
26 -0.15
27 -0.15
28 0.71
29 -0.15
3 -0.57
30 0.11
31 0.14
32 0.26
33 0.18
34 0.1
35 0.1
36 0.1
37 0.1
38 0.1
39 0.37
4 -0.49
40 0.15
41 0.15
42 0.15
43 0.15
44 0.37
45 0.15
46 0.15
47 0.15
5 -0.57
6 0.51
7 -0.65
8 -0.55
9 0.31

> <PUBCHEM_EFFECTIVE_ROTOR_COUNT>
8.6

> <PUBCHEM_PHARMACOPHORE_FEATURES>
10
1 1 acceptor
1 10 acceptor
1 3 acceptor
1 4 donor
1 8 donor
3 5 6 17 cation
5 5 6 15 16 17 rings
5 9 10 25 29 30 rings
6 21 22 23 24 26 27 rings
6 6 7 17 18 19 20 rings

> <PUBCHEM_HEAVY_ATOM_COUNT>
33

> <PUBCHEM_ATOM_DEF_STEREO_COUNT>
0

> <PUBCHEM_ATOM_UDEF_STEREO_COUNT>
0

> <PUBCHEM_BOND_DEF_STEREO_COUNT>
0

> <PUBCHEM_BOND_UDEF_STEREO_COUNT>
0

> <PUBCHEM_ISOTOPIC_ATOM_COUNT>
0

> <PUBCHEM_COMPONENT_COUNT>
1

> <PUBCHEM_CACTVS_TAUTO_COUNT>
4

> <PUBCHEM_CONFORMER_ID>
0179EDE800000001

> <PUBCHEM_MMFF94_ENERGY>
89.655

> <PUBCHEM_FEATURE_SELFOVERLAP>
50.884

> <PUBCHEM_SHAPE_FINGERPRINT>
10319688 140 18267308806054588460
10462674 369 18339934731914130462
10669705 162 18338785780996541655
10864689 126 18335133164551560675
11227688 84 18269262478791667046
11387372 6 18267593412057072985
11399510 152 17703784877319102313
11621639 307 13912605988057246806
117089 54 18341621369518473078
12342043 65 18411694387711489368
12623949 98 18272096040715613228
13383661 66 18410581673570868282
1361 87 18265044748087164524
13782708 43 18410012121951934494
14739800 52 11455075505958723717
14950920 106 17489872643577234403
15324884 4 18121747678357527796
15510800 12 18339347596588161138
15530120 55 17387437665695625574
16728300 4 17847064394030089393
21307412 95 18262791862084967477
21401589 2 11095884843936023693
21796203 349 17131826548512858480
21867126 195 18343016675855616014
23559900 14 17389938187333933265
2835820 90 18335134297916102743
437795 139 18042407937752430518
4435113 14 18409452483370513951
484985 159 18195253204533255129
5047190 19 18122075208980501982
6431902 208 17842268174107389702
6695519 79 17411866825194620440
6700243 42 17894901906728465164
86090 222 18337389456204491578
9980921 177 18200894928572749017
9980921 52 17773575295882899687

> <PUBCHEM_SHAPE_MULTIPOLES>
626.65
18.06
6.25
2.46
1.49
2.62
0.87
31.86
0.88
3.35
0.33
-0.98
-1.54
6.89

> <PUBCHEM_SHAPE_SELFOVERLAP>
1374.022

> <PUBCHEM_SHAPE_VOLUME>
340.3

> <PUBCHEM_COORDINATE_TYPE>
2
5
10

$$$$
11387605
  -OEChem-11282412143D

 73 77  0     1  0  0  0  0  0999 V2000
   -3.8406   -2.3244    2.1322 F   0  0  0  0  0  0  0  0  0  0  0  0
   -2.2687   -2.9125    0.7584 F   0  0  0  0  0  0  0  0  0  0  0  0
   -4.1215   -2.0721   -0.0094 F   0  0  0  0  0  0  0  0  0  0  0  0
    1.5045    0.1126    1.0561 O   0  0  0  0  0  0  0  0  0  0  0  0
   -5.6389    0.4729    0.2049 N   0  0  1  0  0  0  0  0  0  0  0  0
   -9.0188    0.2705   -1.0814 N   0  0  0  0  0  0  0  0  0  0  0  0
    1.1502    2.2973    0.2771 N   0  0  0  0  0  0  0  0  0  0  0  0
    5.9329    1.4648    0.1198 N   0  0  0  0  0  0  0  0  0  0  0  0
    4.9421   -0.6284   -0.2308 N   0  0  0  0  0  0  0  0  0  0  0  0
    7.2752   -0.4414    0.3426 N   0  0  0  0  0  0  0  0  0  0  0  0
    2.5781   -4.7132   -0.3948 N   0  0  0  0  0  0  0  0  0  0  0  0
    1.7906   -2.8694   -1.7318 N   0  0  0  0  0  0  0  0  0  0  0  0
   -7.5703    0.3733   -1.0416 C   0  0  1  0  0  0  0  0  0  0  0  0
   -7.0724    1.8139   -1.1354 C   0  0  0  0  0  0  0  0  0  0  0  0
   -6.9766   -0.1189    0.2699 C   0  0  0  0  0  0  0  0  0  0  0  0
   -5.8311    1.8556   -0.2432 C   0  0  0  0  0  0  0  0  0  0  0  0
   -4.9259    0.3871    1.4698 C   0  0  0  0  0  0  0  0  0  0  0  0
   -3.4395    0.5428    1.2875 C   0  0  0  0  0  0  0  0  0  0  0  0
   -9.5495    0.8779   -2.3049 C   0  0  0  0  0  0  0  0  0  0  0  0
   -9.4432   -1.1291   -0.9883 C   0  0  0  0  0  0  0  0  0  0  0  0
   -2.6243   -0.5660    1.0600 C   0  0  0  0  0  0  0  0  0  0  0  0
   -2.8798    1.8190    1.3486 C   0  0  0  0  0  0  0  0  0  0  0  0
   -1.2495   -0.3985    0.8934 C   0  0  0  0  0  0  0  0  0  0  0  0
   -1.5051    1.9866    1.1823 C   0  0  0  0  0  0  0  0  0  0  0  0
   -3.2007   -1.9419    0.9886 C   0  0  0  0  0  0  0  0  0  0  0  0
   -0.6899    0.8778    0.9547 C   0  0  0  0  0  0  0  0  0  0  0  0
    0.7431    1.0536    0.7797 C   0  0  0  0  0  0  0  0  0  0  0  0
    2.4623    2.7432   -0.0164 C   0  0  0  0  0  0  0  0  0  0  0  0
    3.5506    1.8961    0.1924 C   0  0  0  0  0  0  0  0  0  0  0  0
    2.6658    4.0299   -0.5154 C   0  0  0  0  0  0  0  0  0  0  0  0
    4.8423    2.3357   -0.0975 C   0  0  0  0  0  0  0  0  0  0  0  0
    5.0457    3.6224   -0.5961 C   0  0  0  0  0  0  0  0  0  0  0  0
    3.9575    4.4695   -0.8051 C   0  0  0  0  0  0  0  0  0  0  0  0
    6.4184    4.1190   -0.9142 C   0  0  0  0  0  0  0  0  0  0  0  0
    6.0560    0.0639    0.0747 C   0  0  0  0  0  0  0  0  0  0  0  0
    5.0959   -1.9684   -0.2642 C   0  0  0  0  0  0  0  0  0  0  0  0
    6.2910   -2.6096   -0.0093 C   0  0  0  0  0  0  0  0  0  0  0  0
    7.3574   -1.7872    0.2918 C   0  0  0  0  0  0  0  0  0  0  0  0
    3.9040   -2.7139   -0.5904 C   0  0  0  0  0  0  0  0  0  0  0  0
    3.6791   -3.9876   -0.1093 C   0  0  0  0  0  0  0  0  0  0  0  0
    2.9158   -2.2004   -1.4052 C   0  0  0  0  0  0  0  0  0  0  0  0
    1.6880   -4.1022   -1.1998 C   0  0  0  0  0  0  0  0  0  0  0  0
   -7.1228   -0.1970   -1.8709 H   0  0  0  0  0  0  0  0  0  0  0  0
   -6.8390    2.0880   -2.1702 H   0  0  0  0  0  0  0  0  0  0  0  0
   -7.8049    2.5335   -0.7487 H   0  0  0  0  0  0  0  0  0  0  0  0
   -6.9211   -1.2113    0.3193 H   0  0  0  0  0  0  0  0  0  0  0  0
   -7.5401    0.2538    1.1358 H   0  0  0  0  0  0  0  0  0  0  0  0
   -6.0157    2.5478    0.5880 H   0  0  0  0  0  0  0  0  0  0  0  0
   -4.9625    2.2154   -0.8041 H   0  0  0  0  0  0  0  0  0  0  0  0
   -5.2913    1.1335    2.1899 H   0  0  0  0  0  0  0  0  0  0  0  0
   -5.1429   -0.5646    1.9641 H   0  0  0  0  0  0  0  0  0  0  0  0
   -9.3661    1.9562   -2.3423 H   0  0  0  0  0  0  0  0  0  0  0  0
   -9.1299    0.4202   -3.2084 H   0  0  0  0  0  0  0  0  0  0  0  0
  -10.6393    0.7638   -2.3442 H   0  0  0  0  0  0  0  0  0  0  0  0
   -9.0150   -1.7465   -1.7863 H   0  0  0  0  0  0  0  0  0  0  0  0
   -9.1746   -1.5678   -0.0220 H   0  0  0  0  0  0  0  0  0  0  0  0
  -10.5353   -1.2019   -1.0528 H   0  0  0  0  0  0  0  0  0  0  0  0
   -3.4998    2.6913    1.5381 H   0  0  0  0  0  0  0  0  0  0  0  0
   -0.6145   -1.2617    0.7093 H   0  0  0  0  0  0  0  0  0  0  0  0
   -1.1128    2.9944    1.2794 H   0  0  0  0  0  0  0  0  0  0  0  0
    0.4351    2.9792    0.0404 H   0  0  0  0  0  0  0  0  0  0  0  0
    3.4308    0.9254    0.6421 H   0  0  0  0  0  0  0  0  0  0  0  0
    1.8268    4.7004   -0.6826 H   0  0  0  0  0  0  0  0  0  0  0  0
    4.0980    5.4753   -1.1920 H   0  0  0  0  0  0  0  0  0  0  0  0
    6.8280    1.9237    0.2534 H   0  0  0  0  0  0  0  0  0  0  0  0
    7.0135    4.2107    0.0003 H   0  0  0  0  0  0  0  0  0  0  0  0
    6.9234    3.4426   -1.6120 H   0  0  0  0  0  0  0  0  0  0  0  0
    6.3929    5.1061   -1.3889 H   0  0  0  0  0  0  0  0  0  0  0  0
    6.4274   -3.6826   -0.0515 H   0  0  0  0  0  0  0  0  0  0  0  0
    8.3384   -2.1996    0.5024 H   0  0  0  0  0  0  0  0  0  0  0  0
    4.3701   -4.4952    0.5563 H   0  0  0  0  0  0  0  0  0  0  0  0
    2.9840   -1.2114   -1.8488 H   0  0  0  0  0  0  0  0  0  0  0  0
    0.7935   -4.6617   -1.4446 H   0  0  0  0  0  0  0  0  0  0  0  0
  1 25  1  0  0  0  0
  2 25  1  0  0  0  0
  3 25  1  0  0  0  0
  4 27  2  0  0  0  0
  5 15  1  0  0  0  0
  5 16  1  0  0  0  0
  5 17  1  0  0  0  0
  6 13  1  0  0  0  0
  6 19  1  0  0  0  0
  6 20  1  0  0  0  0
  7 27  1  0  0  0  0
  7 28  1  0  0  0  0
  7 61  1  0  0  0  0
  8 31  1  0  0  0  0
  8 35  1  0  0  0  0
  8 65  1  0  0  0  0
  9 35  1  0  0  0  0
  9 36  2  0  0  0  0
 10 35  2  0  0  0  0
 10 38  1  0  0  0  0
 11 40  2  0  0  0  0
 11 42  1  0  0  0  0
 12 41  1  0  0  0  0
 12 42  2  0  0  0  0
 13 14  1  0  0  0  0
 13 15  1  0  0  0  0
 13 43  1  0  0  0  0
 14 16  1  0  0  0  0
 14 44  1  0  0  0  0
 14 45  1  0  0  0  0
 15 46  1  0  0  0  0
 15 47  1  0  0  0  0
 16 48  1  0  0  0  0
 16 49  1  0  0  0  0
 17 18  1  0  0  0  0
 17 50  1  0  0  0  0
 17 51  1  0  0  0  0
 18 21  2  0  0  0  0
 18 22  1  0  0  0  0
 19 52  1  0  0  0  0
 19 53  1  0  0  0  0
 19 54  1  0  0  0  0
 20 55  1  0  0  0  0
 20 56  1  0  0  0  0
 20 57  1  0  0  0  0
 21 23  1  0  0  0  0
 21 25  1  0  0  0  0
 22 24  2  0  0  0  0
 22 58  1  0  0  0  0
 23 26  2  0  0  0  0
 23 59  1  0  0  0  0
 24 26  1  0  0  0  0
 24 60  1  0  0  0  0
 26 27  1  0  0  0  0
 28 29  2  0  0  0  0
 28 30  1  0  0  0  0
 29 31  1  0  0  0  0
 29 62  1  0  0  0  0
 30 33  2  0  0  0  0
 30 63  1  0  0  0  0
 31 32  2  0  0  0  0
 32 33  1  0  0  0  0
 32 34  1  0  0  0  0
 33 64  1  0  0  0  0
 34 66  1  0  0  0  0
 34 67  1  0  0  0  0
 34 68  1  0  0  0  0
 36 37  1  0  0  0  0
 36 39  1  0  0  0  0
 37 38  2  0  0  0  0
 37 69  1  0  0  0  0
 38 70  1  0  0  0  0
 39 40  1  0  0  0  0
 39 41  2  0  0  0  0
 40 71  1  0  0  0  0
 41 72  1  0  0  0  0
 42 73  1  0  0  0  0
M  END
> <PUBCHEM_COMPOUND_CID>
11387605

> <PUBCHEM_CONFORMER_RMSD>
1.2

> <PUBCHEM_CONFORMER_DIVERSEORDER>
1
148
159
89
142
45
82
64
42
109
121
10
84
71
140
97
128
100
131
114
41
28
88
108
87
11
105
47
94
78
9
52
63
139
49
86
72
77
66
29
74
23
117
133
98
161
112
3
31
103
51
12
156
15
53
43
19
123
99
69
147
48
60
90
35
141
134
154
157
46
145
91
26
124
104
62
138
127
13
76
33
79
67
65
120
81
110
16
57
155
101
115
73
75
129
107
95
6
122
37
136
83
132
118
126
96
70
152
125
50
24
36
39
92
25
68
164
30
135
54
59
143
160
61
34
40
111
44
80
17
32
137
7
144
85
149
163
27
150
56
4
158
55
21
119
20
106
22
116
18
151
38
58
8
162
113
93
130
146
5
102
2
153
14

> <PUBCHEM_MMFF94_PARTIAL_CHARGES>
53
1 -0.34
10 -0.62
11 -0.62
12 -0.62
13 0.27
15 0.27
16 0.27
17 0.41
18 -0.14
19 0.27
2 -0.34
20 0.27
21 -0.14
22 -0.15
23 -0.15
24 -0.15
25 1.16
26 0.09
27 0.54
28 0.12
29 -0.15
3 -0.34
30 -0.15
31 0.1
32 -0.14
33 -0.15
34 0.14
35 0.72
36 0.31
37 -0.15
38 0.16
4 -0.57
40 0.16
41 0.16
42 0.47
5 -0.81
58 0.15
59 0.15
6 -0.81
60 0.15
61 0.37
62 0.15
63 0.15
64 0.15
65 0.4
69 0.15
7 -0.55
70 0.15
71 0.15
72 0.15
73 0.15
8 -0.6
9 -0.62

> <PUBCHEM_EFFECTIVE_ROTOR_COUNT>
11

> <PUBCHEM_PHARMACOPHORE_FEATURES>
14
1 11 acceptor
1 4 acceptor
1 5 cation
1 6 cation
1 7 donor
1 8 donor
1 9 acceptor
3 11 12 42 cation
4 8 9 10 35 cation
5 5 13 14 15 16 rings
6 11 12 39 40 41 42 rings
6 18 21 22 23 24 26 rings
6 28 29 30 31 32 33 rings
6 9 10 35 36 37 38 rings

> <PUBCHEM_HEAVY_ATOM_COUNT>
42

> <PUBCHEM_ATOM_DEF_STEREO_COUNT>
1

> <PUBCHEM_ATOM_UDEF_STEREO_COUNT>
0

> <PUBCHEM_BOND_DEF_STEREO_COUNT>
0

> <PUBCHEM_BOND_UDEF_STEREO_COUNT>
0

> <PUBCHEM_ISOTOPIC_ATOM_COUNT>
0

> <PUBCHEM_COMPONENT_COUNT>
1

> <PUBCHEM_CACTVS_TAUTO_COUNT>
6

> <PUBCHEM_CONFORMER_ID>
00ADC2D500000001

> <PUBCHEM_MMFF94_ENERGY>
133.5461

> <PUBCHEM_FEATURE_SELFOVERLAP>
71.049

> <PUBCHEM_SHAPE_FINGERPRINT>
11135926 11 18270134520767668185
11297010 23 18336545018336996076
11374522 175 18337950074402250615
11409948 41 18270950264143282151
11973864 48 18187654652696383211
12202916 173 18261112921083682994
1361 2 18411990170041525040
14117953 113 18412833465453494846
15082195 135 18413672409182502138
15274700 259 17822282441264141157
15320467 1 18339090289767212106
15328829 1 17346309376063225437
15351334 14 18041825222522758479
15400415 2 17979366575038041144
15406563 47 18259990404587722323
15444296 7 17774993575376622191
15781502 685 18130794447256548433
19301676 85 18336550404516245907
20609170 92 18261394503397340123
21133410 58 18335135397617965826
23559900 14 18413669127590196217
354706 109 18341035394524524778
3633792 109 18409728422915277353
4066623 53 18113900407840103324
4403749 210 17906735053015311768
44426701 97 13254788070878022219
45266715 3 18334010558805344347
4874694 18 18337104683083384984
5309563 4 18194692463041959820
6004065 56 18341330011478538306
99344 41 18339361976423667392

> <PUBCHEM_SHAPE_MULTIPOLES>
796.8
25.64
5.89
1.47
46.19
0.59
-0.11
-2.36
-10.85
-13.09
-1.93
2.61
0.17
0.37

> <PUBCHEM_SHAPE_SELFOVERLAP>
1736.21

> <PUBCHEM_SHAPE_VOLUME>
435.7

> <PUBCHEM_COORDINATE_TYPE>
2
5
10

$$$$
117918742
  -OEChem-11282412143D

 50 54  0     1  0  0  0  0  0999 V2000
    6.0735    1.1894    0.6078 O   0  0  0  0  0  0  0  0  0  0  0  0
    1.6827   -0.6440    0.8031 N   0  0  0  0  0  0  0  0  0  0  0  0
    3.8898    1.4447   -0.1440 N   0  0  0  0  0  0  0  0  0  0  0  0
    2.1341   -3.0048    0.4985 N   0  0  0  0  0  0  0  0  0  0  0  0
    0.2219   -4.2243   -0.3819 N   0  0  0  0  0  0  0  0  0  0  0  0
   -1.8589   -3.1782   -0.8735 N   0  0  0  0  0  0  0  0  0  0  0  0
   -3.1878    0.9765   -1.8550 N   0  0  0  0  0  0  0  0  0  0  0  0
    0.6179    0.2112    0.6106 C   0  0  0  0  0  0  0  0  0  0  0  0
    2.9520   -0.2334    1.3813 C   0  0  0  0  0  0  0  0  0  0  0  0
    3.2395    1.2465    1.1300 C   0  0  2  0  0  0  0  0  0  0  0  0
   -0.4293   -0.5500    0.1210 C   0  0  0  0  0  0  0  0  0  0  0  0
    0.7497    1.6033    0.9186 C   0  0  0  0  0  0  0  0  0  0  0  0
    1.3395   -1.9196    0.4385 C   0  0  0  0  0  0  0  0  0  0  0  0
    0.0196   -1.8907    0.0038 C   0  0  0  0  0  0  0  0  0  0  0  0
    1.9906    2.0841    1.1467 C   0  0  0  0  0  0  0  0  0  0  0  0
   -1.7237   -0.0194   -0.2141 C   0  0  0  0  0  0  0  0  0  0  0  0
   -0.4245    2.5510    0.9564 C   0  0  0  0  0  0  0  0  0  0  0  0
   -0.5306   -3.1012   -0.4155 C   0  0  0  0  0  0  0  0  0  0  0  0
   -2.7473    0.0233    0.7215 C   0  0  0  0  0  0  0  0  0  0  0  0
   -1.9935    0.4655   -1.4776 C   0  0  0  0  0  0  0  0  0  0  0  0
    1.4907   -4.1078    0.0678 C   0  0  0  0  0  0  0  0  0  0  0  0
   -4.0004    0.5444    0.3722 C   0  0  0  0  0  0  0  0  0  0  0  0
    5.2661    1.3976   -0.2920 C   0  0  0  0  0  0  0  0  0  0  0  0
   -4.1793    1.0167   -0.9449 C   0  0  0  0  0  0  0  0  0  0  0  0
   -5.0575    0.6015    1.2963 C   0  0  0  0  0  0  0  0  0  0  0  0
   -5.4242    1.5345   -1.2913 C   0  0  0  0  0  0  0  0  0  0  0  0
    5.6813    1.6376   -1.6998 C   0  0  0  0  0  0  0  0  0  0  0  0
   -6.2921    1.1244    0.9227 C   0  0  0  0  0  0  0  0  0  0  0  0
   -6.4753    1.5916   -0.3728 C   0  0  0  0  0  0  0  0  0  0  0  0
    6.9751    1.6297   -2.0345 C   0  0  0  0  0  0  0  0  0  0  0  0
    2.8579   -0.4252    2.4574 H   0  0  0  0  0  0  0  0  0  0  0  0
    3.7426   -0.8777    0.9814 H   0  0  0  0  0  0  0  0  0  0  0  0
    3.9172    1.5992    1.9169 H   0  0  0  0  0  0  0  0  0  0  0  0
    2.1286    3.1428    1.3565 H   0  0  0  0  0  0  0  0  0  0  0  0
    3.3046    1.5880   -0.9631 H   0  0  0  0  0  0  0  0  0  0  0  0
   -1.1797    2.2055    1.6684 H   0  0  0  0  0  0  0  0  0  0  0  0
   -0.8715    2.6672   -0.0344 H   0  0  0  0  0  0  0  0  0  0  0  0
   -0.1258    3.5535    1.2845 H   0  0  0  0  0  0  0  0  0  0  0  0
   -2.5774   -0.3497    1.7304 H   0  0  0  0  0  0  0  0  0  0  0  0
   -1.2407    0.4638   -2.2608 H   0  0  0  0  0  0  0  0  0  0  0  0
    2.0681   -5.0259    0.0843 H   0  0  0  0  0  0  0  0  0  0  0  0
   -2.4552   -2.3660   -0.9150 H   0  0  0  0  0  0  0  0  0  0  0  0
   -2.2170   -4.0771   -1.1674 H   0  0  0  0  0  0  0  0  0  0  0  0
   -4.9246    0.2387    2.3132 H   0  0  0  0  0  0  0  0  0  0  0  0
   -5.5934    1.9069   -2.3001 H   0  0  0  0  0  0  0  0  0  0  0  0
    4.9229    1.8193   -2.4533 H   0  0  0  0  0  0  0  0  0  0  0  0
   -7.1065    1.1669    1.6394 H   0  0  0  0  0  0  0  0  0  0  0  0
   -7.4353    2.0013   -0.6729 H   0  0  0  0  0  0  0  0  0  0  0  0
    7.2700    1.8056   -3.0638 H   0  0  0  0  0  0  0  0  0  0  0  0
    7.7644    1.4521   -1.3125 H   0  0  0  0  0  0  0  0  0  0  0  0
  1 23  2  0  0  0  0
  2  8  1  0  0  0  0
  2  9  1  0  0  0  0
  2 13  1  0  0  0  0
  3 10  1  0  0  0  0
  3 23  1  0  0  0  0
  3 35  1  0  0  0  0
  4 13  2  0  0  0  0
  4 21  1  0  0  0  0
  5 18  1  0  0  0  0
  5 21  2  0  0  0  0
  6 18  1  0  0  0  0
  6 42  1  0  0  0  0
  6 43  1  0  0  0  0
  7 20  2  0  0  0  0
  7 24  1  0  0  0  0
  8 11  2  0  0  0  0
  8 12  1  0  0  0  0
  9 10  1  0  0  0  0
  9 31  1  0  0  0  0
  9 32  1  0  0  0  0
 10 15  1  0  0  0  0
 10 33  1  0  0  0  0
 11 14  1  0  0  0  0
 11 16  1  0  0  0  0
 12 15  2  0  0  0  0
 12 17  1  0  0  0  0
 13 14  1  0  0  0  0
 14 18  2  0  0  0  0
 15 34  1  0  0  0  0
 16 19  2  0  0  0  0
 16 20  1  0  0  0  0
 17 36  1  0  0  0  0
 17 37  1  0  0  0  0
 17 38  1  0  0  0  0
 19 22  1  0  0  0  0
 19 39  1  0  0  0  0
 20 40  1  0  0  0  0
 21 41  1  0  0  0  0
 22 24  1  0  0  0  0
 22 25  2  0  0  0  0
 23 27  1  0  0  0  0
 24 26  2  0  0  0  0
 25 28  1  0  0  0  0
 25 44  1  0  0  0  0
 26 29  1  0  0  0  0
 26 45  1  0  0  0  0
 27 30  2  0  0  0  0
 27 46  1  0  0  0  0
 28 29  2  0  0  0  0
 28 47  1  0  0  0  0
 29 48  1  0  0  0  0
 30 49  1  0  0  0  0
 30 50  1  0  0  0  0
M  END
> <PUBCHEM_COMPOUND_CID>
117918742

> <PUBCHEM_CONFORMER_RMSD>
0.8

> <PUBCHEM_CONFORMER_DIVERSEORDER>
1
6
11
9
7
4
10
2
3
8
5

> <PUBCHEM_MMFF94_PARTIAL_CHARGES>
42
1 -0.57
10 0.44
11 -0.05
12 -0.09
13 0.11
15 -0.29
16 0.05
17 0.14
18 0.41
19 -0.15
2 0.05
20 0.16
21 0.47
23 0.62
24 0.31
25 -0.15
26 -0.15
27 -0.14
28 -0.15
29 -0.15
3 -0.73
30 -0.3
34 0.15
35 0.37
39 0.15
4 -0.57
40 0.15
41 0.15
42 0.4
43 0.4
44 0.15
45 0.15
46 0.15
47 0.15
48 0.15
49 0.15
5 -0.62
50 0.15
6 -0.9
7 -0.62
8 -0.2
9 0.26

> <PUBCHEM_EFFECTIVE_ROTOR_COUNT>
4.4

> <PUBCHEM_PHARMACOPHORE_FEATURES>
13
1 1 acceptor
1 3 donor
1 30 hydrophobe
1 6 cation
1 6 donor
1 7 acceptor
3 2 4 13 cation
3 4 5 21 cation
5 2 8 11 13 14 rings
6 2 8 9 10 12 15 rings
6 22 24 25 26 28 29 rings
6 4 5 13 14 18 21 rings
6 7 16 19 20 22 24 rings

> <PUBCHEM_HEAVY_ATOM_COUNT>
30

> <PUBCHEM_ATOM_DEF_STEREO_COUNT>
1

> <PUBCHEM_ATOM_UDEF_STEREO_COUNT>
0

> <PUBCHEM_BOND_DEF_STEREO_COUNT>
0

> <PUBCHEM_BOND_UDEF_STEREO_COUNT>
0

> <PUBCHEM_ISOTOPIC_ATOM_COUNT>
0

> <PUBCHEM_COMPONENT_COUNT>
1

> <PUBCHEM_CACTVS_TAUTO_COUNT>
18

> <PUBCHEM_CONFORMER_ID>
07074C1600000001

> <PUBCHEM_MMFF94_ENERGY>
77.5813

> <PUBCHEM_FEATURE_SELFOVERLAP>
66.372

> <PUBCHEM_SHAPE_FINGERPRINT>
10165383 225 18409453600130693085
10369192 42 18041285438705345516
10411042 1 17549537414557984267
10674148 151 17274834523700007128
10693767 8 17774716459649415422
107951 10 18341338889487494310
10906281 52 18335712593956620945
1100329 8 18341319007931237754
11399510 152 8789221496618258796
11796584 16 14261349176107061580
11991303 11 18187935035722693490
12236239 1 17274524448582999425
12390115 104 18341333387470668739
12597179 24 18333733520234321747
12788726 201 17406522163295212403
12895836 83 18188215428626069756
12895837 130 17389681988150706892
13140716 1 18268972285237242842
13540713 4 17699567249916075000
13583140 156 16735206254968830411
13911987 19 18410294722210044309
14114211 68 18336278868361980478
14114211 80 18340777017158978309
1454969 45 18261392321348362087
14790565 3 18341619191790602304
15183329 4 16702310031112867868
15927050 60 18343018921442698287
15961568 22 17530685390030163997
16993427 108 10879721909971994348
17980427 23 17240768427629028639
1813 80 17342094797765595751
19319366 153 18339919325275874966
21033650 10 15410900626715344323
21307412 95 17845395352648685620
21781051 124 18261967318495080066
22440779 20 16812950824457972106
23559900 14 18052804868074999547
24771750 20 18411708651652029014
2747138 104 8430317952874445820
3411729 13 18187644661151317403
350125 39 18266737068444962419
3729539 64 18268725930756484350
38570 142 18060427901974700829
404807 14 14256903713368175780
4058900 60 18335427811670125153
437795 51 18341346517175110871
45377200 153 16056017191944741279
474 4 18200580433312362203
5252454 2 18337098042614934996
5265222 85 18119543269512991380
563151 40 18336834194184747627
57527293 21 17676478428871113947
57527585 21 17970881437595141661
59755656 520 18202290233801562655
633830 44 17916853742044321128
6669772 16 18342743996770844006
6679774 75 18187911864733290186

> <PUBCHEM_SHAPE_MULTIPOLES>
581.63
13.88
3.99
1.53
1.36
6.09
0.47
-13.84
4.54
2.32
0.38
0.61
-0.83
-0.81

> <PUBCHEM_SHAPE_SELFOVERLAP>
1307.719

> <PUBCHEM_SHAPE_VOLUME>
302.6

> <PUBCHEM_COORDINATE_TYPE>
2
5
10

$$$$
11751922
  -OEChem-11282412143D

 63 69  0     0  0  0  0  0  0999 V2000
    2.8382   -3.6403    0.9852 O   0  0  0  0  0  0  0  0  0  0  0  0
    0.1860    2.1390   -0.4405 N   0  0  0  0  0  0  0  0  0  0  0  0
    0.5171   -3.4964    1.0028 N   0  0  0  0  0  0  0  0  0  0  0  0
    6.0943   -1.6529   -0.5369 N   0  0  0  0  0  0  0  0  0  0  0  0
    6.2800   -0.3334   -0.3411 N   0  0  0  0  0  0  0  0  0  0  0  0
   -5.1038    0.7187    0.3083 N   0  0  0  0  0  0  0  0  0  0  0  0
   -7.0567   -0.5751    0.1711 N   0  0  0  0  0  0  0  0  0  0  0  0
   -4.9218   -1.4842   -0.4792 N   0  0  0  0  0  0  0  0  0  0  0  0
    0.8542    0.9564   -0.2067 C   0  0  0  0  0  0  0  0  0  0  0  0
    2.2402    0.6729   -0.2478 C   0  0  0  0  0  0  0  0  0  0  0  0
   -0.1194    0.0017    0.0942 C   0  0  0  0  0  0  0  0  0  0  0  0
    2.6484   -0.6815   -0.0095 C   0  0  0  0  0  0  0  0  0  0  0  0
    0.3146   -1.3003    0.3842 C   0  0  0  0  0  0  0  0  0  0  0  0
    1.6855   -1.6196    0.3437 C   0  0  0  0  0  0  0  0  0  0  0  0
    3.2674    1.7486   -0.6026 C   0  0  0  0  0  0  0  0  0  0  0  0
   -1.3962    0.6467    0.0390 C   0  0  0  0  0  0  0  0  0  0  0  0
   -1.1710    1.9801   -0.2979 C   0  0  0  0  0  0  0  0  0  0  0  0
    4.0726   -0.9271   -0.1315 C   0  0  0  0  0  0  0  0  0  0  0  0
    0.7607    3.3992   -0.8695 C   0  0  0  0  0  0  0  0  0  0  0  0
    4.6578    1.5266    0.0293 C   0  0  0  0  0  0  0  0  0  0  0  0
   -0.4956   -2.5000    0.7728 C   0  0  0  0  0  0  0  0  0  0  0  0
    5.0390    0.1047   -0.1299 C   0  0  0  0  0  0  0  0  0  0  0  0
    1.1001    4.3548    0.2881 C   0  0  0  0  0  0  0  0  0  0  0  0
    1.8057   -3.0264    0.7940 C   0  0  0  0  0  0  0  0  0  0  0  0
   -2.7264    0.2219    0.2438 C   0  0  0  0  0  0  0  0  0  0  0  0
   -2.2049    2.9125   -0.4419 C   0  0  0  0  0  0  0  0  0  0  0  0
    4.7837   -2.0487   -0.4745 C   0  0  0  0  0  0  0  0  0  0  0  0
   -3.7719    1.1420    0.1042 C   0  0  0  0  0  0  0  0  0  0  0  0
   -3.5126    2.4675   -0.2340 C   0  0  0  0  0  0  0  0  0  0  0  0
    2.0700    3.7237    1.2895 C   0  0  0  0  0  0  0  0  0  0  0  0
   -0.1848    4.7731    1.0058 C   0  0  0  0  0  0  0  0  0  0  0  0
    7.2248   -2.4957   -0.8463 C   0  0  0  0  0  0  0  0  0  0  0  0
   -5.7050   -0.4686   -0.0054 C   0  0  0  0  0  0  0  0  0  0  0  0
   -7.6171   -1.7599   -0.1489 C   0  0  0  0  0  0  0  0  0  0  0  0
   -5.5476   -2.6412   -0.7792 C   0  0  0  0  0  0  0  0  0  0  0  0
   -6.9056   -2.8387   -0.6327 C   0  0  0  0  0  0  0  0  0  0  0  0
    3.3972    1.6397   -1.6919 H   0  0  0  0  0  0  0  0  0  0  0  0
    3.0255    2.7791   -0.4881 H   0  0  0  0  0  0  0  0  0  0  0  0
    1.5696    3.2233   -1.5778 H   0  0  0  0  0  0  0  0  0  0  0  0
    0.0227    3.8925   -1.5160 H   0  0  0  0  0  0  0  0  0  0  0  0
    5.3910    2.1881   -0.4454 H   0  0  0  0  0  0  0  0  0  0  0  0
    4.6258    1.7720    1.0974 H   0  0  0  0  0  0  0  0  0  0  0  0
   -1.1511   -2.8362   -0.0345 H   0  0  0  0  0  0  0  0  0  0  0  0
   -1.0528   -2.3401    1.6992 H   0  0  0  0  0  0  0  0  0  0  0  0
    1.5621    5.2588   -0.1272 H   0  0  0  0  0  0  0  0  0  0  0  0
    0.3140   -4.4379    1.3235 H   0  0  0  0  0  0  0  0  0  0  0  0
   -2.8941   -0.8016    0.5581 H   0  0  0  0  0  0  0  0  0  0  0  0
   -2.0457    3.9325   -0.7645 H   0  0  0  0  0  0  0  0  0  0  0  0
    4.4990   -3.0660   -0.7015 H   0  0  0  0  0  0  0  0  0  0  0  0
   -4.3311    3.1738   -0.3556 H   0  0  0  0  0  0  0  0  0  0  0  0
    1.9916    4.2705    2.2403 H   0  0  0  0  0  0  0  0  0  0  0  0
    1.8610    2.6893    1.5586 H   0  0  0  0  0  0  0  0  0  0  0  0
    3.1169    3.8797    1.0179 H   0  0  0  0  0  0  0  0  0  0  0  0
   -0.6720    3.9512    1.5356 H   0  0  0  0  0  0  0  0  0  0  0  0
   -0.8799    5.2732    0.3278 H   0  0  0  0  0  0  0  0  0  0  0  0
    0.0580    5.5194    1.7733 H   0  0  0  0  0  0  0  0  0  0  0  0
    7.9449   -2.4185   -0.0279 H   0  0  0  0  0  0  0  0  0  0  0  0
    7.6672   -2.1472   -1.7828 H   0  0  0  0  0  0  0  0  0  0  0  0
    6.8909   -3.5307   -0.9518 H   0  0  0  0  0  0  0  0  0  0  0  0
   -5.7501    1.4636    0.5470 H   0  0  0  0  0  0  0  0  0  0  0  0
   -8.6899   -1.8204   -0.0004 H   0  0  0  0  0  0  0  0  0  0  0  0
   -4.9056   -3.4317   -1.1526 H   0  0  0  0  0  0  0  0  0  0  0  0
   -7.3811   -3.7778   -0.8812 H   0  0  0  0  0  0  0  0  0  0  0  0
  1 24  2  0  0  0  0
  2  9  1  0  0  0  0
  2 17  1  0  0  0  0
  2 19  1  0  0  0  0
  3 21  1  0  0  0  0
  3 24  1  0  0  0  0
  3 46  1  0  0  0  0
  4  5  1  0  0  0  0
  4 27  1  0  0  0  0
  4 32  1  0  0  0  0
  5 22  2  0  0  0  0
  6 28  1  0  0  0  0
  6 33  1  0  0  0  0
  6 60  1  0  0  0  0
  7 33  2  0  0  0  0
  7 34  1  0  0  0  0
  8 33  1  0  0  0  0
  8 35  2  0  0  0  0
  9 10  1  0  0  0  0
  9 11  2  0  0  0  0
 10 12  2  0  0  0  0
 10 15  1  0  0  0  0
 11 13  1  0  0  0  0
 11 16  1  0  0  0  0
 12 14  1  0  0  0  0
 12 18  1  0  0  0  0
 13 14  2  0  0  0  0
 13 21  1  0  0  0  0
 14 24  1  0  0  0  0
 15 20  1  0  0  0  0
 15 37  1  0  0  0  0
 15 38  1  0  0  0  0
 16 17  2  0  0  0  0
 16 25  1  0  0  0  0
 17 26  1  0  0  0  0
 18 22  1  0  0  0  0
 18 27  2  0  0  0  0
 19 23  1  0  0  0  0
 19 39  1  0  0  0  0
 19 40  1  0  0  0  0
 20 22  1  0  0  0  0
 20 41  1  0  0  0  0
 20 42  1  0  0  0  0
 21 43  1  0  0  0  0
 21 44  1  0  0  0  0
 23 30  1  0  0  0  0
 23 31  1  0  0  0  0
 23 45  1  0  0  0  0
 25 28  2  0  0  0  0
 25 47  1  0  0  0  0
 26 29  2  0  0  0  0
 26 48  1  0  0  0  0
 27 49  1  0  0  0  0
 28 29  1  0  0  0  0
 29 50  1  0  0  0  0
 30 51  1  0  0  0  0
 30 52  1  0  0  0  0
 30 53  1  0  0  0  0
 31 54  1  0  0  0  0
 31 55  1  0  0  0  0
 31 56  1  0  0  0  0
 32 57  1  0  0  0  0
 32 58  1  0  0  0  0
 32 59  1  0  0  0  0
 34 36  2  0  0  0  0
 34 61  1  0  0  0  0
 35 36  1  0  0  0  0
 35 62  1  0  0  0  0
 36 63  1  0  0  0  0
M  END
> <PUBCHEM_COMPOUND_CID>
11751922

> <PUBCHEM_CONFORMER_RMSD>
0.8

> <PUBCHEM_CONFORMER_DIVERSEORDER>
1
4
3
2

> <PUBCHEM_MMFF94_PARTIAL_CHARGES>
40
1 -0.57
10 -0.14
12 0.05
13 -0.14
14 0.09
15 0.14
17 -0.15
18 -0.05
19 0.26
2 0.05
20 0.18
21 0.44
22 0.11
24 0.54
25 -0.15
26 -0.15
27 -0.3
28 0.1
29 -0.15
3 -0.73
32 0.26
33 0.72
34 0.16
35 0.16
36 -0.15
4 0.31
46 0.37
47 0.15
48 0.15
49 0.15
5 -0.71
50 0.15
6 -0.6
60 0.4
61 0.15
62 0.15
63 0.15
7 -0.62
8 -0.62
9 -0.15

> <PUBCHEM_EFFECTIVE_ROTOR_COUNT>
4.8

> <PUBCHEM_PHARMACOPHORE_FEATURES>
15
1 1 acceptor
1 2 cation
1 3 donor
1 5 acceptor
1 6 donor
1 8 acceptor
3 23 30 31 hydrophobe
4 6 7 8 33 cation
5 2 9 11 16 17 rings
5 3 13 14 21 24 rings
5 4 5 18 22 27 rings
6 10 12 15 18 20 22 rings
6 16 17 25 26 28 29 rings
6 7 8 33 34 35 36 rings
6 9 10 11 12 13 14 rings

> <PUBCHEM_HEAVY_ATOM_COUNT>
36

> <PUBCHEM_ATOM_DEF_STEREO_COUNT>
0

> <PUBCHEM_ATOM_UDEF_STEREO_COUNT>
0

> <PUBCHEM_BOND_DEF_STEREO_COUNT>
0

> <PUBCHEM_BOND_UDEF_STEREO_COUNT>
0

> <PUBCHEM_ISOTOPIC_ATOM_COUNT>
0

> <PUBCHEM_COMPONENT_COUNT>
1

> <PUBCHEM_CACTVS_TAUTO_COUNT>
4

> <PUBCHEM_CONFORMER_ID>
00B351F200000001

> <PUBCHEM_MMFF94_ENERGY>
127.2708

> <PUBCHEM_FEATURE_SELFOVERLAP>
76.51

> <PUBCHEM_SHAPE_FINGERPRINT>
10032420 55 17822561738444297521
10190108 129 18334581256947825803
10411042 1 18412265025561528940
1100329 8 18337392771855426849
11135926 11 18335697209884874319
11227688 84 18339346466890515167
11607047 403 17052710316429240795
11963148 33 18263638472806033250
12166972 35 18113622287248278676
12645989 146 18412833469073677046
13140716 1 18121217842453622225
1361 2 18335700606312137137
14040222 275 18268454402849944398
14068700 675 18344149193889381905
14394314 77 18338240367358101497
14790565 3 18263093141251214732
14955137 171 18272652363423902181
15320467 1 18409728491455853939
15351339 4 18114173086575962307
15439362 3 18048597311374100813
15927050 60 17764589115532913900
16087824 20 18265332808383720965
16114785 44 15972136792953142457
18608769 82 18339642218802415864
18681886 176 18342452664411522635
19591789 44 18408886222276960032
19611394 137 18115885142867557355
20028762 73 18341895211968916823
20775438 99 17765133352451340599
21197605 99 18340771528391818902
21267235 1 18410580565136385287
21814621 53 16414362152377115690
23522609 53 18122943942534349293
23559900 14 18339071696864356665
283562 15 18191874422844751048
3178227 256 18263375818617639417
335352 9 18334301964210608502
3380486 145 18117576028426047161
392239 28 18338526214084011936
4461854 278 18059304261686108095
463206 1 18408610270754727723
469060 322 18193003621355653384
484989 97 18261401108076054642
6004065 56 18339642351424292728
9896288 288 17842845429673928425

> <PUBCHEM_SHAPE_MULTIPOLES>
700.13
16.06
5.61
0.89
14.68
3.64
-0.09
-15.83
3.83
-1.25
-1.12
-0.26
0.01
-0.16

> <PUBCHEM_SHAPE_SELFOVERLAP>
1589.721

> <PUBCHEM_SHAPE_VOLUME>
368.9

> <PUBCHEM_COORDINATE_TYPE>
2
5
10

$$$$
46213929
  -OEChem-11282412143D

 58 62  0     0  0  0  0  0  0999 V2000
   -5.8824    2.9621    1.9229 Cl  0  0  0  0  0  0  0  0  0  0  0  0
   -1.2986    3.9880    0.0267 F   0  0  0  0  0  0  0  0  0  0  0  0
    7.2146   -0.5952   -0.5265 O   0  0  0  0  0  0  0  0  0  0  0  0
    4.6176   -0.2199    0.5765 N   0  0  0  0  0  0  0  0  0  0  0  0
    0.3882    0.3619   -0.3299 N   0  0  0  0  0  0  0  0  0  0  0  0
    2.1334    1.7235   -0.0865 N   0  0  0  0  0  0  0  0  0  0  0  0
   -0.4093   -0.7310   -0.2358 N   0  0  0  0  0  0  0  0  0  0  0  0
   -0.6210   -2.8886    0.6038 N   0  0  0  0  0  0  0  0  0  0  0  0
   -2.6399   -2.3112   -0.6177 N   0  0  0  0  0  0  0  0  0  0  0  0
   -3.7591   -3.0190   -0.8466 N   0  0  0  0  0  0  0  0  0  0  0  0
    3.5805   -0.4898    1.5702 C   0  0  0  0  0  0  0  0  0  0  0  0
    5.8127    0.3524    1.2119 C   0  0  0  0  0  0  0  0  0  0  0  0
    4.9730   -1.4453   -0.1527 C   0  0  0  0  0  0  0  0  0  0  0  0
    2.2133   -0.5490    0.9411 C   0  0  0  0  0  0  0  0  0  0  0  0
    1.6511    0.5302    0.2019 C   0  0  0  0  0  0  0  0  0  0  0  0
    6.8842    0.6141    0.1576 C   0  0  0  0  0  0  0  0  0  0  0  0
    6.0652   -1.1419   -1.1743 C   0  0  0  0  0  0  0  0  0  0  0  0
    0.0691    1.5209   -0.9880 C   0  0  0  0  0  0  0  0  0  0  0  0
    1.4673   -1.6603    1.0684 C   0  0  0  0  0  0  0  0  0  0  0  0
    1.1577    2.3417   -0.8233 C   0  0  0  0  0  0  0  0  0  0  0  0
   -1.2120    1.7236   -1.6898 C   0  0  0  0  0  0  0  0  0  0  0  0
    0.1020   -1.7282    0.4441 C   0  0  0  0  0  0  0  0  0  0  0  0
   -2.3891    2.0383   -0.7771 C   0  0  0  0  0  0  0  0  0  0  0  0
    1.3576    3.7109   -1.3238 C   0  0  0  0  0  0  0  0  0  0  0  0
   -2.3601    3.1695    0.0386 C   0  0  0  0  0  0  0  0  0  0  0  0
   -3.4986    1.1929   -0.7580 C   0  0  0  0  0  0  0  0  0  0  0  0
   -1.8942   -3.1491    0.1075 C   0  0  0  0  0  0  0  0  0  0  0  0
   -3.4405    3.4552    0.8735 C   0  0  0  0  0  0  0  0  0  0  0  0
   -4.5787    1.4784    0.0771 C   0  0  0  0  0  0  0  0  0  0  0  0
   -2.5322   -4.3822    0.3399 C   0  0  0  0  0  0  0  0  0  0  0  0
   -4.5497    2.6097    0.8928 C   0  0  0  0  0  0  0  0  0  0  0  0
   -3.7451   -4.2661   -0.2941 C   0  0  0  0  0  0  0  0  0  0  0  0
   -4.8771   -5.1967   -0.4301 C   0  0  0  0  0  0  0  0  0  0  0  0
    3.8102   -1.3911    2.1545 H   0  0  0  0  0  0  0  0  0  0  0  0
    3.5420    0.3316    2.3000 H   0  0  0  0  0  0  0  0  0  0  0  0
    5.5671    1.2997    1.7055 H   0  0  0  0  0  0  0  0  0  0  0  0
    6.2056   -0.3365    1.9710 H   0  0  0  0  0  0  0  0  0  0  0  0
    5.3343   -2.2133    0.5439 H   0  0  0  0  0  0  0  0  0  0  0  0
    4.1052   -1.8512   -0.6842 H   0  0  0  0  0  0  0  0  0  0  0  0
    7.7960    0.9848    0.6368 H   0  0  0  0  0  0  0  0  0  0  0  0
    6.5609    1.3694   -0.5692 H   0  0  0  0  0  0  0  0  0  0  0  0
    5.7146   -0.4464   -1.9467 H   0  0  0  0  0  0  0  0  0  0  0  0
    6.3738   -2.0649   -1.6755 H   0  0  0  0  0  0  0  0  0  0  0  0
    1.8155   -2.5310    1.6134 H   0  0  0  0  0  0  0  0  0  0  0  0
   -1.1306    2.5424   -2.4156 H   0  0  0  0  0  0  0  0  0  0  0  0
   -1.4392    0.8356   -2.2949 H   0  0  0  0  0  0  0  0  0  0  0  0
    1.1879    4.4370   -0.5229 H   0  0  0  0  0  0  0  0  0  0  0  0
    2.3843    3.8391   -1.6823 H   0  0  0  0  0  0  0  0  0  0  0  0
    0.6872    3.9518   -2.1533 H   0  0  0  0  0  0  0  0  0  0  0  0
   -0.1724   -3.6285    1.1419 H   0  0  0  0  0  0  0  0  0  0  0  0
   -3.5398    0.3146   -1.3953 H   0  0  0  0  0  0  0  0  0  0  0  0
   -3.4036    4.3402    1.5034 H   0  0  0  0  0  0  0  0  0  0  0  0
   -5.4370    0.8115    0.0802 H   0  0  0  0  0  0  0  0  0  0  0  0
   -2.1681   -5.2388    0.8895 H   0  0  0  0  0  0  0  0  0  0  0  0
   -4.4960   -2.5860   -1.3895 H   0  0  0  0  0  0  0  0  0  0  0  0
   -4.6738   -6.1429    0.0817 H   0  0  0  0  0  0  0  0  0  0  0  0
   -5.0714   -5.4198   -1.4842 H   0  0  0  0  0  0  0  0  0  0  0  0
   -5.7860   -4.7680    0.0044 H   0  0  0  0  0  0  0  0  0  0  0  0
  1 31  1  0  0  0  0
  2 25  1  0  0  0  0
  3 16  1  0  0  0  0
  3 17  1  0  0  0  0
  4 11  1  0  0  0  0
  4 12  1  0  0  0  0
  4 13  1  0  0  0  0
  5  7  1  0  0  0  0
  5 15  1  0  0  0  0
  5 18  1  0  0  0  0
  6 15  2  0  0  0  0
  6 20  1  0  0  0  0
  7 22  2  0  0  0  0
  8 22  1  0  0  0  0
  8 27  1  0  0  0  0
  8 50  1  0  0  0  0
  9 10  1  0  0  0  0
  9 27  2  0  0  0  0
 10 32  1  0  0  0  0
 10 55  1  0  0  0  0
 11 14  1  0  0  0  0
 11 34  1  0  0  0  0
 11 35  1  0  0  0  0
 12 16  1  0  0  0  0
 12 36  1  0  0  0  0
 12 37  1  0  0  0  0
 13 17  1  0  0  0  0
 13 38  1  0  0  0  0
 13 39  1  0  0  0  0
 14 15  1  0  0  0  0
 14 19  2  0  0  0  0
 16 40  1  0  0  0  0
 16 41  1  0  0  0  0
 17 42  1  0  0  0  0
 17 43  1  0  0  0  0
 18 20  2  0  0  0  0
 18 21  1  0  0  0  0
 19 22  1  0  0  0  0
 19 44  1  0  0  0  0
 20 24  1  0  0  0  0
 21 23  1  0  0  0  0
 21 45  1  0  0  0  0
 21 46  1  0  0  0  0
 23 25  2  0  0  0  0
 23 26  1  0  0  0  0
 24 47  1  0  0  0  0
 24 48  1  0  0  0  0
 24 49  1  0  0  0  0
 25 28  1  0  0  0  0
 26 29  2  0  0  0  0
 26 51  1  0  0  0  0
 27 30  1  0  0  0  0
 28 31  2  0  0  0  0
 28 52  1  0  0  0  0
 29 31  1  0  0  0  0
 29 53  1  0  0  0  0
 30 32  2  0  0  0  0
 30 54  1  0  0  0  0
 32 33  1  0  0  0  0
 33 56  1  0  0  0  0
 33 57  1  0  0  0  0
 33 58  1  0  0  0  0
M  END
> <PUBCHEM_COMPOUND_CID>
46213929

> <PUBCHEM_CONFORMER_RMSD>
1.2

> <PUBCHEM_CONFORMER_DIVERSEORDER>
1
82
89
71
99
107
3
8
46
111
23
15
105
91
41
110
19
114
93
36
67
37
80
14
106
102
104
109
70
84
92
100
97
10
81
57
88
86
44
77
115
48
112
68
90
79
98
13
108
78
117
65
22
61
83
31
87
96
76
27
55
94
95
12
30
73
75
85
43
17
63
69
47
101
72
39
2
66
103
51
62
24
64
113
7
49
52
74
59
56
4
9
42
16
33
29
53
32
21
54
6
38
58
11
35
26
5
28
20
60
18
25
50
34
40
116
45

> <PUBCHEM_MMFF94_PARTIAL_CHARGES>
40
1 -0.18
10 0.3
11 0.41
12 0.27
13 0.27
14 -0.09
15 0.14
16 0.28
17 0.28
18 -0.33
19 -0.14
2 -0.19
20 0.05
21 0.32
22 0.49
23 -0.14
24 0.18
25 0.19
26 -0.15
27 0.37
28 -0.15
29 -0.15
3 -0.56
30 -0.15
31 0.18
32 -0.33
33 0.18
4 -0.81
44 0.15
5 0.51
50 0.4
51 0.15
52 0.15
53 0.15
54 0.15
55 0.27
6 -0.57
7 -0.65
8 -0.53
9 -0.71

> <PUBCHEM_EFFECTIVE_ROTOR_COUNT>
7.2

> <PUBCHEM_PHARMACOPHORE_FEATURES>
12
1 10 donor
1 3 acceptor
1 4 cation
1 8 donor
3 5 6 15 cation
3 7 8 22 cation
3 8 9 27 cation
5 5 6 15 18 20 rings
5 9 10 27 30 32 rings
6 23 25 26 28 29 31 rings
6 3 4 12 13 16 17 rings
6 5 7 14 15 19 22 rings

> <PUBCHEM_HEAVY_ATOM_COUNT>
33

> <PUBCHEM_ATOM_DEF_STEREO_COUNT>
0

> <PUBCHEM_ATOM_UDEF_STEREO_COUNT>
0

> <PUBCHEM_BOND_DEF_STEREO_COUNT>
0

> <PUBCHEM_BOND_UDEF_STEREO_COUNT>
0

> <PUBCHEM_ISOTOPIC_ATOM_COUNT>
0

> <PUBCHEM_COMPONENT_COUNT>
1

> <PUBCHEM_CACTVS_TAUTO_COUNT>
13

> <PUBCHEM_CONFORMER_ID>
02C12B2900000001

> <PUBCHEM_MMFF94_ENERGY>
61.0729

> <PUBCHEM_FEATURE_SELFOVERLAP>
61.518

> <PUBCHEM_SHAPE_FINGERPRINT>
10190108 129 17619656595122880033
10411042 1 18193271025439064494
10815517 723 18410292515007817207
1100329 8 18408318912868611765
11331351 85 18126564759189494511
11445158 3 14996871869054031230
12058002 1 17558577758270150548
12440605 4 18046088191379278512
12788726 201 18121225538908149839
13383665 225 18263094365685854172
13540713 5 18189064264039351884
13757389 114 18338244752071318084
13782708 43 13253066227158761189
13911987 19 17971457525246697181
14068700 675 18191576656508642082
14117953 113 18409161096569218013
14363568 33 17332533372100026867
14400156 350 17898303710249258597
14790565 3 17978229357553827672
14840074 17 18041847186068014236
14856354 85 18342736295556631756
14866123 147 18408882919146669554
15183329 4 14404890346568226880
15351339 4 17829030363088129483
15420108 30 18265612074965681857
15927050 60 18266740186254135234
18365409 1 18412260615378786917
19591789 44 17832979456198381266
20642791 13 18336260267085507098
21304303 172 18339642360125490611
21344244 78 17834655464201551899
21796203 349 17900578741540495697
22223350 30 18271242823798185361
4058900 60 17840029533440763113
4403749 210 18335698291800356145
4461854 278 18195547921579506753
563151 40 18262526896751935562
563151 97 17978779126781074325
59755656 520 18269272374343094744
6442390 28 18122905326761926512
9658208 31 18270675360318587826

> <PUBCHEM_SHAPE_MULTIPOLES>
632.98
13.82
6.64
1.33
19.39
5.9
-0.15
0.69
-2.46
-13.92
0.55
-0.16
-0.72
-2.26

> <PUBCHEM_SHAPE_SELFOVERLAP>
1371.665

> <PUBCHEM_SHAPE_VOLUME>
350

> <PUBCHEM_COORDINATE_TYPE>
2
5
10

$$$$
118295624
  -OEChem-11282412143D

 68 71  0     0  0  0  0  0  0999 V2000
    2.4457   -2.7570    2.3695 Cl  0  0  0  0  0  0  0  0  0  0  0  0
    0.3052   -1.6386   -2.5291 Cl  0  0  0  0  0  0  0  0  0  0  0  0
   -6.5152   -0.0072   -0.3180 O   0  0  0  0  0  0  0  0  0  0  0  0
   -0.1409   -0.1512    1.0442 O   0  0  0  0  0  0  0  0  0  0  0  0
   -0.5441   -4.4765   -2.4034 O   0  0  0  0  0  0  0  0  0  0  0  0
    1.3134   -5.4469    1.8479 O   0  0  0  0  0  0  0  0  0  0  0  0
   -1.9655    2.0628   -0.1139 N   0  0  0  0  0  0  0  0  0  0  0  0
   -4.7080    1.3182    0.3071 N   0  0  0  0  0  0  0  0  0  0  0  0
    1.5113    1.4284    0.6355 N   0  0  0  0  0  0  0  0  0  0  0  0
    3.2832    3.0022    0.2007 N   0  0  0  0  0  0  0  0  0  0  0  0
    5.3378    2.2846   -0.8258 N   0  0  0  0  0  0  0  0  0  0  0  0
    5.0151    4.5269   -0.2236 N   0  0  0  0  0  0  0  0  0  0  0  0
   -2.9651    3.0828    0.2295 C   0  0  0  0  0  0  0  0  0  0  0  0
   -2.5812    1.0029   -0.9235 C   0  0  0  0  0  0  0  0  0  0  0  0
   -0.8403    2.6658   -0.8272 C   0  0  0  0  0  0  0  0  0  0  0  0
   -4.1353    2.4749    1.0074 C   0  0  0  0  0  0  0  0  0  0  0  0
   -3.7237    0.3398   -0.1574 C   0  0  0  0  0  0  0  0  0  0  0  0
    0.1045    3.4110    0.1201 C   0  0  0  0  0  0  0  0  0  0  0  0
    0.7397    2.5336    1.1970 C   0  0  0  0  0  0  0  0  0  0  0  0
   -6.0639    1.0295    0.1723 C   0  0  0  0  0  0  0  0  0  0  0  0
    2.8144    1.7319    0.1385 C   0  0  0  0  0  0  0  0  0  0  0  0
    0.9739    0.1392    0.6063 C   0  0  0  0  0  0  0  0  0  0  0  0
    1.8292   -0.9427    0.0078 C   0  0  0  0  0  0  0  0  0  0  0  0
    3.5703    0.7012   -0.3980 C   0  0  0  0  0  0  0  0  0  0  0  0
    3.0519   -0.6534   -0.4612 C   0  0  0  0  0  0  0  0  0  0  0  0
   -7.0319    2.0336    0.6582 C   0  0  0  0  0  0  0  0  0  0  0  0
    1.3310   -2.3268   -0.0896 C   0  0  0  0  0  0  0  0  0  0  0  0
    4.8303    1.0372   -0.8675 C   0  0  0  0  0  0  0  0  0  0  0  0
    4.5221    3.2055   -0.2867 C   0  0  0  0  0  0  0  0  0  0  0  0
    1.5688   -3.2291    0.9473 C   0  0  0  0  0  0  0  0  0  0  0  0
    0.6222   -2.7342   -1.2199 C   0  0  0  0  0  0  0  0  0  0  0  0
   -8.2202    2.1263    0.0579 C   0  0  0  0  0  0  0  0  0  0  0  0
    0.1514   -4.0439   -1.3134 C   0  0  0  0  0  0  0  0  0  0  0  0
    1.0978   -4.5389    0.8539 C   0  0  0  0  0  0  0  0  0  0  0  0
    0.3890   -4.9462   -0.2762 C   0  0  0  0  0  0  0  0  0  0  0  0
    4.2604    5.6107    0.3232 C   0  0  0  0  0  0  0  0  0  0  0  0
   -1.9619   -4.3301   -2.3658 C   0  0  0  0  0  0  0  0  0  0  0  0
    0.3286   -5.5264    2.8759 C   0  0  0  0  0  0  0  0  0  0  0  0
   -3.3505    3.5661   -0.6785 H   0  0  0  0  0  0  0  0  0  0  0  0
   -2.5296    3.8672    0.8571 H   0  0  0  0  0  0  0  0  0  0  0  0
   -1.8426    0.2318   -1.1678 H   0  0  0  0  0  0  0  0  0  0  0  0
   -2.9584    1.4101   -1.8710 H   0  0  0  0  0  0  0  0  0  0  0  0
   -0.2586    1.8943   -1.3474 H   0  0  0  0  0  0  0  0  0  0  0  0
   -1.1897    3.3497   -1.6119 H   0  0  0  0  0  0  0  0  0  0  0  0
   -3.7994    2.1190    1.9890 H   0  0  0  0  0  0  0  0  0  0  0  0
   -4.8776    3.2562    1.1770 H   0  0  0  0  0  0  0  0  0  0  0  0
   -4.1990   -0.4167   -0.7906 H   0  0  0  0  0  0  0  0  0  0  0  0
   -3.3400   -0.1762    0.7316 H   0  0  0  0  0  0  0  0  0  0  0  0
    0.8889    3.8720   -0.4924 H   0  0  0  0  0  0  0  0  0  0  0  0
   -0.4112    4.2472    0.6050 H   0  0  0  0  0  0  0  0  0  0  0  0
    1.3882    3.1354    1.8455 H   0  0  0  0  0  0  0  0  0  0  0  0
   -0.0417    2.1340    1.8538 H   0  0  0  0  0  0  0  0  0  0  0  0
    3.6861   -1.4167   -0.9031 H   0  0  0  0  0  0  0  0  0  0  0  0
   -6.8078    2.6542    1.5151 H   0  0  0  0  0  0  0  0  0  0  0  0
    5.4911    0.2946   -1.3047 H   0  0  0  0  0  0  0  0  0  0  0  0
   -8.9531    2.8417    0.4165 H   0  0  0  0  0  0  0  0  0  0  0  0
   -8.4982    1.5170   -0.7952 H   0  0  0  0  0  0  0  0  0  0  0  0
    0.0235   -5.9677   -0.3499 H   0  0  0  0  0  0  0  0  0  0  0  0
    5.9465    4.6887   -0.5880 H   0  0  0  0  0  0  0  0  0  0  0  0
    4.0198    5.4352    1.3768 H   0  0  0  0  0  0  0  0  0  0  0  0
    3.3306    5.7677   -0.2334 H   0  0  0  0  0  0  0  0  0  0  0  0
    4.8428    6.5355    0.2649 H   0  0  0  0  0  0  0  0  0  0  0  0
   -2.3619   -4.6199   -3.3413 H   0  0  0  0  0  0  0  0  0  0  0  0
   -2.2493   -3.2934   -2.1644 H   0  0  0  0  0  0  0  0  0  0  0  0
   -2.3893   -4.9892   -1.6035 H   0  0  0  0  0  0  0  0  0  0  0  0
    0.6895   -6.2173    3.6428 H   0  0  0  0  0  0  0  0  0  0  0  0
   -0.6105   -5.9155    2.4698 H   0  0  0  0  0  0  0  0  0  0  0  0
    0.1574   -4.5495    3.3386 H   0  0  0  0  0  0  0  0  0  0  0  0
  1 30  1  0  0  0  0
  2 31  1  0  0  0  0
  3 20  2  0  0  0  0
  4 22  2  0  0  0  0
  5 33  1  0  0  0  0
  5 37  1  0  0  0  0
  6 34  1  0  0  0  0
  6 38  1  0  0  0  0
  7 13  1  0  0  0  0
  7 14  1  0  0  0  0
  7 15  1  0  0  0  0
  8 16  1  0  0  0  0
  8 17  1  0  0  0  0
  8 20  1  0  0  0  0
  9 19  1  0  0  0  0
  9 21  1  0  0  0  0
  9 22  1  0  0  0  0
 10 21  2  0  0  0  0
 10 29  1  0  0  0  0
 11 28  1  0  0  0  0
 11 29  2  0  0  0  0
 12 29  1  0  0  0  0
 12 36  1  0  0  0  0
 12 59  1  0  0  0  0
 13 16  1  0  0  0  0
 13 39  1  0  0  0  0
 13 40  1  0  0  0  0
 14 17  1  0  0  0  0
 14 41  1  0  0  0  0
 14 42  1  0  0  0  0
 15 18  1  0  0  0  0
 15 43  1  0  0  0  0
 15 44  1  0  0  0  0
 16 45  1  0  0  0  0
 16 46  1  0  0  0  0
 17 47  1  0  0  0  0
 17 48  1  0  0  0  0
 18 19  1  0  0  0  0
 18 49  1  0  0  0  0
 18 50  1  0  0  0  0
 19 51  1  0  0  0  0
 19 52  1  0  0  0  0
 20 26  1  0  0  0  0
 21 24  1  0  0  0  0
 22 23  1  0  0  0  0
 23 25  2  0  0  0  0
 23 27  1  0  0  0  0
 24 25  1  0  0  0  0
 24 28  2  0  0  0  0
 25 53  1  0  0  0  0
 26 32  2  0  0  0  0
 26 54  1  0  0  0  0
 27 30  2  0  0  0  0
 27 31  1  0  0  0  0
 28 55  1  0  0  0  0
 30 34  1  0  0  0  0
 31 33  2  0  0  0  0
 32 56  1  0  0  0  0
 32 57  1  0  0  0  0
 33 35  1  0  0  0  0
 34 35  2  0  0  0  0
 35 58  1  0  0  0  0
 36 60  1  0  0  0  0
 36 61  1  0  0  0  0
 36 62  1  0  0  0  0
 37 63  1  0  0  0  0
 37 64  1  0  0  0  0
 37 65  1  0  0  0  0
 38 66  1  0  0  0  0
 38 67  1  0  0  0  0
 38 68  1  0  0  0  0
M  END
> <PUBCHEM_COMPOUND_CID>
118295624

> <PUBCHEM_CONFORMER_RMSD>
1.2

> <PUBCHEM_CONFORMER_DIVERSEORDER>
1
3
23
6
18
46
48
8
11
22
9
45
40
16
47
36
41
37
31
24
29
34
4
20
33
28
10
21
27
32
25
38
44
30
15
39
26
42
2
43
19
5
35
12
17
7
14
13

> <PUBCHEM_MMFF94_PARTIAL_CHARGES>
44
1 -0.18
10 -0.62
11 -0.62
12 -0.87
13 0.27
14 0.27
15 0.27
16 0.3
17 0.3
19 0.3
2 -0.18
20 0.62
21 0.43
22 0.62
23 -0.01
24 0.03
25 -0.18
26 -0.14
27 0.03
28 0.16
29 0.72
3 -0.57
30 0.18
31 0.18
32 -0.3
33 0.08
34 0.08
35 -0.15
36 0.37
37 0.28
38 0.28
4 -0.57
5 -0.36
53 0.15
54 0.15
55 0.15
56 0.15
57 0.15
58 0.15
59 0.4
6 -0.36
7 -0.81
8 -0.66
9 -0.48

> <PUBCHEM_EFFECTIVE_ROTOR_COUNT>
11.2

> <PUBCHEM_PHARMACOPHORE_FEATURES>
12
1 12 donor
1 3 acceptor
1 32 hydrophobe
1 4 acceptor
1 5 acceptor
1 6 acceptor
1 7 cation
4 10 11 12 29 cation
6 10 11 21 24 28 29 rings
6 27 30 31 33 34 35 rings
6 7 8 13 14 16 17 rings
6 9 21 22 23 24 25 rings

> <PUBCHEM_HEAVY_ATOM_COUNT>
38

> <PUBCHEM_ATOM_DEF_STEREO_COUNT>
0

> <PUBCHEM_ATOM_UDEF_STEREO_COUNT>
0

> <PUBCHEM_BOND_DEF_STEREO_COUNT>
0

> <PUBCHEM_BOND_UDEF_STEREO_COUNT>
0

> <PUBCHEM_ISOTOPIC_ATOM_COUNT>
0

> <PUBCHEM_COMPONENT_COUNT>
1

> <PUBCHEM_CACTVS_TAUTO_COUNT>
7

> <PUBCHEM_CONFORMER_ID>
070D0C4800000001

> <PUBCHEM_MMFF94_ENERGY>
125.2317

> <PUBCHEM_FEATURE_SELFOVERLAP>
60.926

> <PUBCHEM_SHAPE_FINGERPRINT>
11991303 11 18117292539262149108
12156800 1 17833582319203484956
12788726 201 17763165239733077746
1361 2 18410859879972022813
14675020 138 18342162367772634984
14790565 3 18341618139270510725
15324884 4 17899733246767185738
15351339 4 17620156130717853447
15484559 13 18341342119260384508
15629462 23 17761487393906307794
16114785 44 18048880998305577818
16993438 75 17978515556746800298
17809404 112 17749690501886695611
18365409 1 18052541255498430541
19301679 30 18193563273280424401
19319366 153 18411132545654032101
19427546 62 18338520853886101072
20028762 73 18270965639904512356
21133410 52 18196352742158428534
21133410 62 18046043103677950367
21772528 278 18265619959988249645
27425 322 18270965751073184916
3178227 256 18337389340677652432
3882209 13 17400331492039966269
613672 6 17115214872799285599
6679774 75 18188475918534893850
9658208 31 18057038223749439424

> <PUBCHEM_SHAPE_MULTIPOLES>
732.4
12.31
9.36
1.9
30.32
6.66
0.03
-16.35
0.78
-10.74
1.47
-0.64
3.7
-2.55

> <PUBCHEM_SHAPE_SELFOVERLAP>
1542.676

> <PUBCHEM_SHAPE_VOLUME>
411.2

> <PUBCHEM_COORDINATE_TYPE>
2
5
10

$$$$
71226662
  -OEChem-11282412143D

 58 62  0     1  0  0  0  0  0999 V2000
    4.3925    1.3137   -2.0231 O   0  0  0  0  0  0  0  0  0  0  0  0
   -4.7459    0.5825    2.0680 O   0  0  0  0  0  0  0  0  0  0  0  0
    4.7915    1.2000    0.2597 N   0  0  0  0  0  0  0  0  0  0  0  0
    3.0032   -2.0401   -0.2447 N   0  0  0  0  0  0  0  0  0  0  0  0
    2.1621   -0.1352    0.5227 N   0  0  0  0  0  0  0  0  0  0  0  0
    1.8597   -4.4079   -1.1301 N   0  0  0  0  0  0  0  0  0  0  0  0
   -0.3044   -3.6571   -0.7713 N   0  0  0  0  0  0  0  0  0  0  0  0
   -5.0983    0.4052   -0.2451 N   0  0  0  0  0  0  0  0  0  0  0  0
   -7.0282    0.6721   -1.6110 N   0  0  0  0  0  0  0  0  0  0  0  0
    4.6807   -0.2562    0.3961 C   0  0  1  0  0  0  0  0  0  0  0  0
    5.2583   -0.5392    1.7892 C   0  0  0  0  0  0  0  0  0  0  0  0
    4.9662    0.7378    2.5711 C   0  0  0  0  0  0  0  0  0  0  0  0
    5.1452    1.8312    1.5291 C   0  0  0  0  0  0  0  0  0  0  0  0
    3.2688   -0.7880    0.2337 C   0  0  0  0  0  0  0  0  0  0  0  0
    1.6377   -2.1928   -0.2615 C   0  0  0  0  0  0  0  0  0  0  0  0
    4.6900    1.8497   -0.9607 C   0  0  0  0  0  0  0  0  0  0  0  0
    1.1401   -1.0037    0.2166 C   0  0  0  0  0  0  0  0  0  0  0  0
    3.8194   -3.0677   -0.6694 C   0  0  0  0  0  0  0  0  0  0  0  0
    1.0546   -3.4415   -0.7292 C   0  0  0  0  0  0  0  0  0  0  0  0
   -0.2371   -0.6589    0.3936 C   0  0  0  0  0  0  0  0  0  0  0  0
    3.2294   -4.1995   -1.0911 C   0  0  0  0  0  0  0  0  0  0  0  0
    4.9563    3.2707   -0.9767 C   0  0  0  0  0  0  0  0  0  0  0  0
   -0.9438   -0.0521   -0.6447 C   0  0  0  0  0  0  0  0  0  0  0  0
   -0.8730   -0.9286    1.6056 C   0  0  0  0  0  0  0  0  0  0  0  0
   -2.2862    0.2846   -0.4713 C   0  0  0  0  0  0  0  0  0  0  0  0
   -2.2153   -0.5920    1.7791 C   0  0  0  0  0  0  0  0  0  0  0  0
   -2.9220    0.0147    0.7405 C   0  0  0  0  0  0  0  0  0  0  0  0
    5.1774    4.4507   -0.9899 C   0  0  0  0  0  0  0  0  0  0  0  0
   -4.3217    0.3654    0.9214 C   0  0  0  0  0  0  0  0  0  0  0  0
    5.4468    5.8877   -1.0060 C   0  0  0  0  0  0  0  0  0  0  0  0
   -6.4800    0.6891   -0.3754 C   0  0  0  0  0  0  0  0  0  0  0  0
   -7.1869    0.9685    0.7831 C   0  0  0  0  0  0  0  0  0  0  0  0
   -8.5438    1.2481    0.6658 C   0  0  0  0  0  0  0  0  0  0  0  0
   -8.3494    0.9487   -1.6857 C   0  0  0  0  0  0  0  0  0  0  0  0
   -9.1439    1.2400   -0.5885 C   0  0  0  0  0  0  0  0  0  0  0  0
    5.3193   -0.6980   -0.3779 H   0  0  0  0  0  0  0  0  0  0  0  0
    4.8453   -1.4303    2.2718 H   0  0  0  0  0  0  0  0  0  0  0  0
    6.3456   -0.6685    1.7149 H   0  0  0  0  0  0  0  0  0  0  0  0
    3.9291    0.7249    2.9270 H   0  0  0  0  0  0  0  0  0  0  0  0
    5.6220    0.8692    3.4360 H   0  0  0  0  0  0  0  0  0  0  0  0
    4.5134    2.7036    1.7194 H   0  0  0  0  0  0  0  0  0  0  0  0
    6.1904    2.1533    1.4648 H   0  0  0  0  0  0  0  0  0  0  0  0
    4.8932   -2.9385   -0.6477 H   0  0  0  0  0  0  0  0  0  0  0  0
    3.8360   -5.0319   -1.4314 H   0  0  0  0  0  0  0  0  0  0  0  0
   -0.4597    0.1725   -1.5923 H   0  0  0  0  0  0  0  0  0  0  0  0
   -0.3363   -1.4020    2.4245 H   0  0  0  0  0  0  0  0  0  0  0  0
   -0.9822   -2.9632   -0.4805 H   0  0  0  0  0  0  0  0  0  0  0  0
   -0.6745   -4.5413   -1.1038 H   0  0  0  0  0  0  0  0  0  0  0  0
   -2.7822    0.7898   -1.2945 H   0  0  0  0  0  0  0  0  0  0  0  0
   -2.6924   -0.8161    2.7296 H   0  0  0  0  0  0  0  0  0  0  0  0
    5.4932    6.2862    0.0120 H   0  0  0  0  0  0  0  0  0  0  0  0
    6.4013    6.0993   -1.4972 H   0  0  0  0  0  0  0  0  0  0  0  0
    4.6610    6.4251   -1.5453 H   0  0  0  0  0  0  0  0  0  0  0  0
   -4.6689    0.1682   -1.1344 H   0  0  0  0  0  0  0  0  0  0  0  0
   -6.7940    0.9936    1.7858 H   0  0  0  0  0  0  0  0  0  0  0  0
   -9.1343    1.4721    1.5493 H   0  0  0  0  0  0  0  0  0  0  0  0
   -8.7692    0.9297   -2.6860 H   0  0  0  0  0  0  0  0  0  0  0  0
  -10.2000    1.4550   -0.7036 H   0  0  0  0  0  0  0  0  0  0  0  0
  1 16  2  0  0  0  0
  2 29  2  0  0  0  0
  3 10  1  0  0  0  0
  3 13  1  0  0  0  0
  3 16  1  0  0  0  0
  4 14  1  0  0  0  0
  4 15  1  0  0  0  0
  4 18  1  0  0  0  0
  5 14  2  0  0  0  0
  5 17  1  0  0  0  0
  6 19  2  0  0  0  0
  6 21  1  0  0  0  0
  7 19  1  0  0  0  0
  7 47  1  0  0  0  0
  7 48  1  0  0  0  0
  8 29  1  0  0  0  0
  8 31  1  0  0  0  0
  8 54  1  0  0  0  0
  9 31  1  0  0  0  0
  9 34  2  0  0  0  0
 10 11  1  0  0  0  0
 10 14  1  0  0  0  0
 10 36  1  0  0  0  0
 11 12  1  0  0  0  0
 11 37  1  0  0  0  0
 11 38  1  0  0  0  0
 12 13  1  0  0  0  0
 12 39  1  0  0  0  0
 12 40  1  0  0  0  0
 13 41  1  0  0  0  0
 13 42  1  0  0  0  0
 15 17  2  0  0  0  0
 15 19  1  0  0  0  0
 16 22  1  0  0  0  0
 17 20  1  0  0  0  0
 18 21  2  0  0  0  0
 18 43  1  0  0  0  0
 20 23  2  0  0  0  0
 20 24  1  0  0  0  0
 21 44  1  0  0  0  0
 22 28  3  0  0  0  0
 23 25  1  0  0  0  0
 23 45  1  0  0  0  0
 24 26  2  0  0  0  0
 24 46  1  0  0  0  0
 25 27  2  0  0  0  0
 25 49  1  0  0  0  0
 26 27  1  0  0  0  0
 26 50  1  0  0  0  0
 27 29  1  0  0  0  0
 28 30  1  0  0  0  0
 30 51  1  0  0  0  0
 30 52  1  0  0  0  0
 30 53  1  0  0  0  0
 31 32  2  0  0  0  0
 32 33  1  0  0  0  0
 32 55  1  0  0  0  0
 33 35  2  0  0  0  0
 33 56  1  0  0  0  0
 34 35  1  0  0  0  0
 34 57  1  0  0  0  0
 35 58  1  0  0  0  0
M  END
> <PUBCHEM_COMPOUND_CID>
71226662

> <PUBCHEM_CONFORMER_RMSD>
1

> <PUBCHEM_CONFORMER_DIVERSEORDER>
1
18
17
10
20
11
19
23
27
9
5
22
12
24
2
25
13
3
8
16
26
14
21
15
4
7
6

> <PUBCHEM_MMFF94_PARTIAL_CHARGES>
46
1 -0.57
10 0.48
13 0.3
14 0.01
15 -0.24
16 0.74
17 0.17
18 -0.18
19 0.58
2 -0.57
20 0.05
21 0.02
22 -0.1
23 -0.15
24 -0.15
25 -0.15
26 -0.15
27 0.09
28 -0.2
29 0.54
3 -0.66
30 0.2
31 0.43
32 -0.15
33 -0.15
34 0.16
35 -0.15
4 0.33
43 0.15
44 0.15
45 0.15
46 0.15
47 0.4
48 0.4
49 0.15
5 -0.57
50 0.15
54 0.37
55 0.15
56 0.15
57 0.15
58 0.15
6 -0.62
7 -0.85
8 -0.55
9 -0.62

> <PUBCHEM_EFFECTIVE_ROTOR_COUNT>
7

> <PUBCHEM_PHARMACOPHORE_FEATURES>
13
1 1 acceptor
1 2 acceptor
1 30 hydrophobe
1 7 donor
1 8 donor
1 9 acceptor
3 4 5 14 cation
3 6 7 19 cation
5 3 10 11 12 13 rings
5 4 5 14 15 17 rings
6 20 23 24 25 26 27 rings
6 4 6 15 18 19 21 rings
6 9 31 32 33 34 35 rings

> <PUBCHEM_HEAVY_ATOM_COUNT>
35

> <PUBCHEM_ATOM_DEF_STEREO_COUNT>
1

> <PUBCHEM_ATOM_UDEF_STEREO_COUNT>
0

> <PUBCHEM_BOND_DEF_STEREO_COUNT>
0

> <PUBCHEM_BOND_UDEF_STEREO_COUNT>
0

> <PUBCHEM_ISOTOPIC_ATOM_COUNT>
0

> <PUBCHEM_COMPONENT_COUNT>
1

> <PUBCHEM_CACTVS_TAUTO_COUNT>
6

> <PUBCHEM_CONFORMER_ID>
043ED52600000001

> <PUBCHEM_MMFF94_ENERGY>
97.2032

> <PUBCHEM_FEATURE_SELFOVERLAP>
66.072

> <PUBCHEM_SHAPE_FINGERPRINT>
10411042 1 17624701150973337998
10673678 19 18337680818259168652
10952577 141 17535771894889369908
11135609 127 18408317800714584549
11505856 67 17399806389749677404
11607047 74 16629947873098026538
12788726 201 17549259685493953534
13533116 47 17988639628430803867
14117953 113 18412548708942584228
15082195 135 18339089206839230972
15198563 99 17117769583977639334
15419008 91 17821725023672007181
16096371 109 18335143059459547826
1979834 28 18408042901190268788
20157964 124 18342173328370599827
21583282 1 18059847377078700597
21792964 463 18057908882508757505
23516275 100 18040149643595800005
23522609 53 17631474293155603705
23559900 14 18336843991564286754
23569943 247 10231490592554117493
23729417 116 17188702943949874238
249057 25 17631739236370330979
255183 451 17842004286600270006
27425 322 18114179760971029267
3044373 193 18186801344486368923
34797466 226 18335702694462756219
3534868 343 17987525809670554192
397830 11 18114194072587406603
4073 2 18341891897140465339
44880568 143 18188486849575087621
45270241 37 18271529694207880375
45377200 153 14835826453422367805
49967989 163 16056594409616112119
504579 68 17845940641316757631
5109719 28 18114472214569593337
57527293 21 17603860156954640546
9849439 229 18271238439205540672
9962374 69 18129090130955515071

> <PUBCHEM_SHAPE_MULTIPOLES>
673.68
22.62
5.37
1.83
56.52
1.93
-0.64
22.52
2.5
-14.79
3.87
-0.73
0.34
-0.58

> <PUBCHEM_SHAPE_SELFOVERLAP>
1482.401

> <PUBCHEM_SHAPE_VOLUME>
359.4

> <PUBCHEM_COORDINATE_TYPE>
2
5
10

$$$$
11952856
  -OEChem-11282412143D

 54 57  0     1  0  0  0  0  0999 V2000
    5.6859   -2.8621   -1.2280 Br  0  0  0  0  0  0  0  0  0  0  0  0
   -3.7608    1.2147   -0.6052 O   0  0  0  0  0  0  0  0  0  0  0  0
   -5.2512   -1.0018   -0.4409 O   0  0  0  0  0  0  0  0  0  0  0  0
    1.7912    2.6800    0.0905 N   0  0  2  0  0  0  0  0  0  0  0  0
    1.1537   -0.4904    0.2218 N   0  0  0  0  0  0  0  0  0  0  0  0
    0.7456   -2.8427    0.4670 N   0  0  0  0  0  0  0  0  0  0  0  0
   -1.4759   -3.7370    0.3309 N   0  0  0  0  0  0  0  0  0  0  0  0
   -0.2884    3.9887   -0.4152 C   0  0  0  0  0  0  0  0  0  0  0  0
    0.6079    3.3497    0.6587 C   0  0  0  0  0  0  0  0  0  0  0  0
   -1.6929    4.3413    0.0925 C   0  0  0  0  0  0  0  0  0  0  0  0
   -2.6063    3.1382    0.3508 C   0  0  0  0  0  0  0  0  0  0  0  0
    2.5271    1.9394    1.1328 C   0  0  0  0  0  0  0  0  0  0  0  0
    3.2570    0.7298    0.5672 C   0  0  0  0  0  0  0  0  0  0  0  0
   -2.9910    2.3788   -0.9213 C   0  0  0  0  0  0  0  0  0  0  0  0
    2.6762    3.6125   -0.6123 C   0  0  0  0  0  0  0  0  0  0  0  0
    2.5637   -0.4274    0.1206 C   0  0  0  0  0  0  0  0  0  0  0  0
    4.6604    0.7793    0.4836 C   0  0  0  0  0  0  0  0  0  0  0  0
   -1.1229   -1.3745    0.0372 C   0  0  0  0  0  0  0  0  0  0  0  0
   -3.0939    0.0390   -0.3848 C   0  0  0  0  0  0  0  0  0  0  0  0
    0.2649   -1.5970    0.2474 C   0  0  0  0  0  0  0  0  0  0  0  0
    3.3178   -1.4849   -0.4169 C   0  0  0  0  0  0  0  0  0  0  0  0
   -1.7150   -0.1088   -0.2229 C   0  0  0  0  0  0  0  0  0  0  0  0
   -1.9568   -2.5080    0.1051 C   0  0  0  0  0  0  0  0  0  0  0  0
   -3.8978   -1.0917   -0.2960 C   0  0  0  0  0  0  0  0  0  0  0  0
    5.3818   -0.2887   -0.0420 C   0  0  0  0  0  0  0  0  0  0  0  0
    4.7107   -1.4171   -0.4957 C   0  0  0  0  0  0  0  0  0  0  0  0
   -3.3278   -2.3444   -0.0622 C   0  0  0  0  0  0  0  0  0  0  0  0
   -0.1494   -3.8404    0.4959 C   0  0  0  0  0  0  0  0  0  0  0  0
   -6.0141   -0.7744    0.7415 C   0  0  0  0  0  0  0  0  0  0  0  0
   -0.3587    3.3343   -1.2903 H   0  0  0  0  0  0  0  0  0  0  0  0
    0.1821    4.9175   -0.7613 H   0  0  0  0  0  0  0  0  0  0  0  0
    0.9045    4.1104    1.3923 H   0  0  0  0  0  0  0  0  0  0  0  0
    0.0207    2.6005    1.1995 H   0  0  0  0  0  0  0  0  0  0  0  0
   -1.6034    4.9246    1.0171 H   0  0  0  0  0  0  0  0  0  0  0  0
   -2.1763    4.9963   -0.6430 H   0  0  0  0  0  0  0  0  0  0  0  0
   -2.1592    2.4630    1.0868 H   0  0  0  0  0  0  0  0  0  0  0  0
   -3.5302    3.4939    0.8255 H   0  0  0  0  0  0  0  0  0  0  0  0
    1.8512    1.5619    1.9124 H   0  0  0  0  0  0  0  0  0  0  0  0
    3.2194    2.6021    1.6701 H   0  0  0  0  0  0  0  0  0  0  0  0
   -3.6412    3.0225   -1.5259 H   0  0  0  0  0  0  0  0  0  0  0  0
   -2.1439    2.1313   -1.5683 H   0  0  0  0  0  0  0  0  0  0  0  0
    2.1743    4.0621   -1.4749 H   0  0  0  0  0  0  0  0  0  0  0  0
    3.5520    3.0962   -1.0196 H   0  0  0  0  0  0  0  0  0  0  0  0
    3.0274    4.4171    0.0437 H   0  0  0  0  0  0  0  0  0  0  0  0
    5.1998    1.6597    0.8250 H   0  0  0  0  0  0  0  0  0  0  0  0
    0.7279    0.3714    0.5406 H   0  0  0  0  0  0  0  0  0  0  0  0
    2.8208   -2.3698   -0.8061 H   0  0  0  0  0  0  0  0  0  0  0  0
   -1.0746    0.7642   -0.2855 H   0  0  0  0  0  0  0  0  0  0  0  0
    6.4650   -0.2202   -0.0964 H   0  0  0  0  0  0  0  0  0  0  0  0
   -3.9797   -3.2157   -0.0057 H   0  0  0  0  0  0  0  0  0  0  0  0
    0.2404   -4.8351    0.6732 H   0  0  0  0  0  0  0  0  0  0  0  0
   -5.8878   -1.6039    1.4444 H   0  0  0  0  0  0  0  0  0  0  0  0
   -7.0692   -0.7114    0.4617 H   0  0  0  0  0  0  0  0  0  0  0  0
   -5.7217    0.1676    1.2163 H   0  0  0  0  0  0  0  0  0  0  0  0
  1 26  1  0  0  0  0
  2 14  1  0  0  0  0
  2 19  1  0  0  0  0
  3 24  1  0  0  0  0
  3 29  1  0  0  0  0
  4  9  1  0  0  0  0
  4 12  1  0  0  0  0
  4 15  1  0  0  0  0
  5 16  1  0  0  0  0
  5 20  1  0  0  0  0
  5 46  1  0  0  0  0
  6 20  2  0  0  0  0
  6 28  1  0  0  0  0
  7 23  1  0  0  0  0
  7 28  2  0  0  0  0
  8  9  1  0  0  0  0
  8 10  1  0  0  0  0
  8 30  1  0  0  0  0
  8 31  1  0  0  0  0
  9 32  1  0  0  0  0
  9 33  1  0  0  0  0
 10 11  1  0  0  0  0
 10 34  1  0  0  0  0
 10 35  1  0  0  0  0
 11 14  1  0  0  0  0
 11 36  1  0  0  0  0
 11 37  1  0  0  0  0
 12 13  1  0  0  0  0
 12 38  1  0  0  0  0
 12 39  1  0  0  0  0
 13 16  2  0  0  0  0
 13 17  1  0  0  0  0
 14 40  1  0  0  0  0
 14 41  1  0  0  0  0
 15 42  1  0  0  0  0
 15 43  1  0  0  0  0
 15 44  1  0  0  0  0
 16 21  1  0  0  0  0
 17 25  2  0  0  0  0
 17 45  1  0  0  0  0
 18 20  1  0  0  0  0
 18 22  2  0  0  0  0
 18 23  1  0  0  0  0
 19 22  1  0  0  0  0
 19 24  2  0  0  0  0
 21 26  2  0  0  0  0
 21 47  1  0  0  0  0
 22 48  1  0  0  0  0
 23 27  2  0  0  0  0
 24 27  1  0  0  0  0
 25 26  1  0  0  0  0
 25 49  1  0  0  0  0
 27 50  1  0  0  0  0
 28 51  1  0  0  0  0
 29 52  1  0  0  0  0
 29 53  1  0  0  0  0
 29 54  1  0  0  0  0
M  END
> <PUBCHEM_COMPOUND_CID>
11952856

> <PUBCHEM_CONFORMER_RMSD>
0.8

> <PUBCHEM_CONFORMER_DIVERSEORDER>
1
7
9
3
10
11
4
5
2
8
6

> <PUBCHEM_MMFF94_PARTIAL_CHARGES>
32
1 -0.11
12 0.41
13 -0.14
14 0.28
15 0.27
16 0.1
17 -0.15
19 0.08
2 -0.36
20 0.41
21 -0.15
22 -0.15
23 0.31
24 0.08
25 -0.15
26 0.11
27 -0.15
28 0.47
29 0.28
3 -0.36
4 -0.81
45 0.15
46 0.4
47 0.15
48 0.15
49 0.15
5 -0.6
50 0.15
51 0.15
6 -0.62
7 -0.62
9 0.27

> <PUBCHEM_EFFECTIVE_ROTOR_COUNT>
2.8

> <PUBCHEM_PHARMACOPHORE_FEATURES>
10
1 1 hydrophobe
1 2 acceptor
1 3 acceptor
1 4 cation
1 5 donor
3 5 6 20 cation
3 6 7 28 cation
6 13 16 17 21 25 26 rings
6 18 19 22 23 24 27 rings
6 6 7 18 20 23 28 rings

> <PUBCHEM_HEAVY_ATOM_COUNT>
29

> <PUBCHEM_ATOM_DEF_STEREO_COUNT>
0

> <PUBCHEM_ATOM_UDEF_STEREO_COUNT>
0

> <PUBCHEM_BOND_DEF_STEREO_COUNT>
0

> <PUBCHEM_BOND_UDEF_STEREO_COUNT>
0

> <PUBCHEM_ISOTOPIC_ATOM_COUNT>
0

> <PUBCHEM_COMPONENT_COUNT>
1

> <PUBCHEM_CACTVS_TAUTO_COUNT>
3

> <PUBCHEM_CONFORMER_ID>
00B662D800000001

> <PUBCHEM_MMFF94_ENERGY>
111.4507

> <PUBCHEM_FEATURE_SELFOVERLAP>
50.908

> <PUBCHEM_SHAPE_FINGERPRINT>
10006869 2 18194110821285390783
10074138 170 15881765084703007155
10670039 82 18262802844100026126
10693767 8 17842533405491758007
1100329 8 18265332992328147611
11513181 2 16828415541016982372
11828532 37 18262807396955776999
12038231 1 18266453209502939513
12645989 146 18343863329103147782
13122387 1 18122617263105222441
13140716 1 18191028009276371099
13402501 40 18411978070100774172
1361 2 15600607488890107794
138480 1 15817063171920111952
14251757 5 18336844030329047852
144659 178 18336836290851137380
14466204 15 18337099065345003802
14725015 67 18338502097652539441
14790565 3 17476084519036985320
14866123 147 18124882261215881616
14931854 50 17979343175570559101
14955137 171 18263095456270040963
15320467 1 18410291436438210728
15351339 4 17976817593377904218
15927050 60 17908701727082241629
17627616 140 17616533952229948690
19591789 44 18194399987989359448
19930381 70 16896233413711793113
20764821 26 18337391547790247708
20775438 99 17192303179337787535
21279426 13 18196653999954237350
221357 26 18341892978564433942
23559900 14 18270397321231889194
3052486 1 18335694989070186680
350125 39 18409169917788510597
469060 322 18337124375676917785
9709674 26 18195527215062936046

> <PUBCHEM_SHAPE_MULTIPOLES>
571.09
11.08
6.05
0.89
3.23
3.74
-0.04
-5.22
-1.68
-1.23
0.04
0.32
0.06
1.38

> <PUBCHEM_SHAPE_SELFOVERLAP>
1208.389

> <PUBCHEM_SHAPE_VOLUME>
325.8

> <PUBCHEM_COORDINATE_TYPE>
2
5
10

$$$$
25182860
  -OEChem-11282412143D

 61 66  0     0  0  0  0  0  0999 V2000
   -2.0768   -0.1705    1.9797 S   0  0  0  0  0  0  0  0  0  0  0  0
    2.9610   -1.0469   -0.2610 S   0  0  0  0  0  0  0  0  0  0  0  0
   11.7100   -2.6147    0.2556 F   0  0  0  0  0  0  0  0  0  0  0  0
  -12.5743   -0.7861   -1.3055 O   0  0  0  0  0  0  0  0  0  0  0  0
   -5.8909    0.4486   -0.6550 O   0  0  0  0  0  0  0  0  0  0  0  0
  -10.3292   -0.2034    0.3440 N   0  0  0  0  0  0  0  0  0  0  0  0
   -6.8708    0.6361    1.4320 N   0  0  0  0  0  0  0  0  0  0  0  0
   -4.6062    0.2502    1.2996 N   0  0  0  0  0  0  0  0  0  0  0  0
    4.9257    0.9225   -0.2017 N   0  0  0  0  0  0  0  0  0  0  0  0
   -2.9251   -0.0526   -0.4531 N   0  0  0  0  0  0  0  0  0  0  0  0
    5.9583    0.0460   -0.1291 N   0  0  0  0  0  0  0  0  0  0  0  0
    3.7751    2.7904   -0.2971 N   0  0  0  0  0  0  0  0  0  0  0  0
    2.8916    1.7302   -0.3189 N   0  0  0  0  0  0  0  0  0  0  0  0
  -11.1925   -1.3640    0.6033 C   0  0  0  0  0  0  0  0  0  0  0  0
  -10.3329    0.1164   -1.0903 C   0  0  0  0  0  0  0  0  0  0  0  0
   -8.9689   -0.4527    0.8165 C   0  0  0  0  0  0  0  0  0  0  0  0
  -12.6026   -1.0856    0.0906 C   0  0  0  0  0  0  0  0  0  0  0  0
  -11.7633    0.3608   -1.5622 C   0  0  0  0  0  0  0  0  0  0  0  0
   -8.2159    0.8598    0.9767 C   0  0  0  0  0  0  0  0  0  0  0  0
   -5.7822    0.4423    0.5689 C   0  0  0  0  0  0  0  0  0  0  0  0
   -3.3018    0.0239    0.8020 C   0  0  0  0  0  0  0  0  0  0  0  0
   -0.9152   -0.3801    0.7228 C   0  0  0  0  0  0  0  0  0  0  0  0
   -1.5587   -0.2848   -0.5149 C   0  0  0  0  0  0  0  0  0  0  0  0
    1.2029   -0.7505   -0.3545 C   0  0  0  0  0  0  0  0  0  0  0  0
    0.4658   -0.6127    0.8245 C   0  0  0  0  0  0  0  0  0  0  0  0
   -0.7904   -0.4280   -1.6908 C   0  0  0  0  0  0  0  0  0  0  0  0
    4.9929    2.2962   -0.2265 C   0  0  0  0  0  0  0  0  0  0  0  0
    7.1288    0.6156   -0.0736 C   0  0  0  0  0  0  0  0  0  0  0  0
    3.5962    0.6227   -0.2620 C   0  0  0  0  0  0  0  0  0  0  0  0
    0.5850   -0.6599   -1.5969 C   0  0  0  0  0  0  0  0  0  0  0  0
    8.3417   -0.2391    0.0127 C   0  0  0  0  0  0  0  0  0  0  0  0
    6.2726    2.8836   -0.1825 C   0  0  0  0  0  0  0  0  0  0  0  0
    7.3540    2.0969   -0.1091 C   0  0  0  0  0  0  0  0  0  0  0  0
    9.4838    0.2340    0.6589 C   0  0  0  0  0  0  0  0  0  0  0  0
    8.3376   -1.5148   -0.5514 C   0  0  0  0  0  0  0  0  0  0  0  0
   10.6216   -0.5684    0.7410 C   0  0  0  0  0  0  0  0  0  0  0  0
    9.4755   -2.3173   -0.4695 C   0  0  0  0  0  0  0  0  0  0  0  0
   10.6175   -1.8441    0.1767 C   0  0  0  0  0  0  0  0  0  0  0  0
  -11.2434   -1.5703    1.6785 H   0  0  0  0  0  0  0  0  0  0  0  0
  -10.7902   -2.2550    0.1036 H   0  0  0  0  0  0  0  0  0  0  0  0
   -9.8989   -0.7114   -1.6665 H   0  0  0  0  0  0  0  0  0  0  0  0
   -9.7528    1.0185   -1.3058 H   0  0  0  0  0  0  0  0  0  0  0  0
   -8.9966   -0.9360    1.8028 H   0  0  0  0  0  0  0  0  0  0  0  0
   -8.4290   -1.1429    0.1547 H   0  0  0  0  0  0  0  0  0  0  0  0
  -13.2308   -1.9715    0.2280 H   0  0  0  0  0  0  0  0  0  0  0  0
  -13.0743   -0.2571    0.6331 H   0  0  0  0  0  0  0  0  0  0  0  0
  -12.2058    1.2389   -1.0761 H   0  0  0  0  0  0  0  0  0  0  0  0
  -11.7741    0.5399   -2.6422 H   0  0  0  0  0  0  0  0  0  0  0  0
   -8.1602    1.4227    0.0406 H   0  0  0  0  0  0  0  0  0  0  0  0
   -8.7059    1.4967    1.7218 H   0  0  0  0  0  0  0  0  0  0  0  0
   -6.7040    0.6064    2.4331 H   0  0  0  0  0  0  0  0  0  0  0  0
   -4.6694    0.2714    2.3137 H   0  0  0  0  0  0  0  0  0  0  0  0
    0.9399   -0.6819    1.7999 H   0  0  0  0  0  0  0  0  0  0  0  0
   -1.2631   -0.3587   -2.6664 H   0  0  0  0  0  0  0  0  0  0  0  0
    1.1577   -0.7667   -2.5154 H   0  0  0  0  0  0  0  0  0  0  0  0
    6.3709    3.9623   -0.2259 H   0  0  0  0  0  0  0  0  0  0  0  0
    8.3462    2.5274   -0.1170 H   0  0  0  0  0  0  0  0  0  0  0  0
    9.5187    1.2049    1.1434 H   0  0  0  0  0  0  0  0  0  0  0  0
    7.4621   -1.9022   -1.0658 H   0  0  0  0  0  0  0  0  0  0  0  0
   11.5086   -0.2041    1.2509 H   0  0  0  0  0  0  0  0  0  0  0  0
    9.4734   -3.3100   -0.9098 H   0  0  0  0  0  0  0  0  0  0  0  0
  1 21  1  0  0  0  0
  1 22  1  0  0  0  0
  2 24  1  0  0  0  0
  2 29  1  0  0  0  0
  3 38  1  0  0  0  0
  4 17  1  0  0  0  0
  4 18  1  0  0  0  0
  5 20  2  0  0  0  0
  6 14  1  0  0  0  0
  6 15  1  0  0  0  0
  6 16  1  0  0  0  0
  7 19  1  0  0  0  0
  7 20  1  0  0  0  0
  7 51  1  0  0  0  0
  8 20  1  0  0  0  0
  8 21  1  0  0  0  0
  8 52  1  0  0  0  0
  9 11  1  0  0  0  0
  9 27  1  0  0  0  0
  9 29  1  0  0  0  0
 10 21  2  0  0  0  0
 10 23  1  0  0  0  0
 11 28  2  0  0  0  0
 12 13  1  0  0  0  0
 12 27  2  0  0  0  0
 13 29  2  0  0  0  0
 14 17  1  0  0  0  0
 14 39  1  0  0  0  0
 14 40  1  0  0  0  0
 15 18  1  0  0  0  0
 15 41  1  0  0  0  0
 15 42  1  0  0  0  0
 16 19  1  0  0  0  0
 16 43  1  0  0  0  0
 16 44  1  0  0  0  0
 17 45  1  0  0  0  0
 17 46  1  0  0  0  0
 18 47  1  0  0  0  0
 18 48  1  0  0  0  0
 19 49  1  0  0  0  0
 19 50  1  0  0  0  0
 22 23  2  0  0  0  0
 22 25  1  0  0  0  0
 23 26  1  0  0  0  0
 24 25  2  0  0  0  0
 24 30  1  0  0  0  0
 25 53  1  0  0  0  0
 26 30  2  0  0  0  0
 26 54  1  0  0  0  0
 27 32  1  0  0  0  0
 28 31  1  0  0  0  0
 28 33  1  0  0  0  0
 30 55  1  0  0  0  0
 31 34  2  0  0  0  0
 31 35  1  0  0  0  0
 32 33  2  0  0  0  0
 32 56  1  0  0  0  0
 33 57  1  0  0  0  0
 34 36  1  0  0  0  0
 34 58  1  0  0  0  0
 35 37  2  0  0  0  0
 35 59  1  0  0  0  0
 36 38  2  0  0  0  0
 36 60  1  0  0  0  0
 37 38  1  0  0  0  0
 37 61  1  0  0  0  0
M  END
> <PUBCHEM_COMPOUND_CID>
25182860

> <PUBCHEM_CONFORMER_RMSD>
1.2

> <PUBCHEM_CONFORMER_DIVERSEORDER>
2
142
80
200
221
192
15
264
218
185
230
232
186
250
283
223
205
280
231
241
43
167
147
209
5
169
59
252
229
277
291
18
60
12
278
262
153
259
212
284
204
13
233
117
131
93
78
177
130
26
49
82
263
159
272
240
116
75
148
174
198
245
24
83
172
6
156
119
99
235
165
111
66
47
225
189
251
242
72
50
160
290
170
236
237
137
207
289
180
129
266
95
286
267
55
249
41
94
206
118
133
54
109
228
254
107
106
183
127
269
213
247
48
244
65
238
201
120
64
74
51
273
255
256
103
100
33
171
145
261
63
275
282
182
8
211
77
196
146
115
161
68
248
114
271
195
17
268
35
62
45
194
152
224
71
123
30
86
135
184
105
121
199
246
178
181
19
203
253
162
276
141
138
1
39
202
102
295
193
40
150
243
21
139
281
239
38
166
216
136
46
214
163
285
90
84
155
29
168
270
53
234
265
91
173
226
22
222
157
7
191
190
197
188
258
176
154
140
219
92
144
97
4
187
294
56
37
151
67
44
227
57
31
112
208
215
11
14
125
210
76
3
175
10
34
292
20
279
27
179
126
110
134
128
104
69
124
143
88
73
122
16
132
28
42
217
87
293
287
52
79
260
101
32
81
220
288
257
25
9
23
149
85
89
36
96
108
274
113
61
70
164
58
158
98

> <PUBCHEM_MMFF94_PARTIAL_CHARGES>
49
1 -0.08
10 -0.57
11 -0.65
12 -0.34
13 -0.34
14 0.27
15 0.27
16 0.27
17 0.28
18 0.28
19 0.3
2 -0.16
20 0.69
21 0.44
22 0.04
23 0.23
24 0.1
25 -0.15
26 -0.15
27 0.14
28 0.35
29 0.24
3 -0.19
30 -0.15
31 0.09
32 -0.11
33 -0.14
34 -0.15
35 -0.15
36 -0.15
37 -0.15
38 0.19
4 -0.56
5 -0.57
51 0.37
52 0.37
53 0.15
54 0.15
55 0.15
56 0.15
57 0.15
58 0.15
59 0.15
6 -0.81
60 0.15
61 0.15
7 -0.73
8 -0.49
9 0.51

> <PUBCHEM_EFFECTIVE_ROTOR_COUNT>
10.2

> <PUBCHEM_PHARMACOPHORE_FEATURES>
14
1 11 acceptor
1 4 acceptor
1 5 acceptor
1 6 cation
1 7 donor
1 8 donor
3 9 12 27 cation
3 9 13 29 cation
5 1 10 21 22 23 rings
5 9 12 13 27 29 rings
6 22 23 24 25 26 30 rings
6 31 34 35 36 37 38 rings
6 4 6 14 15 17 18 rings
6 9 11 27 28 32 33 rings

> <PUBCHEM_HEAVY_ATOM_COUNT>
38

> <PUBCHEM_ATOM_DEF_STEREO_COUNT>
0

> <PUBCHEM_ATOM_UDEF_STEREO_COUNT>
0

> <PUBCHEM_BOND_DEF_STEREO_COUNT>
0

> <PUBCHEM_BOND_UDEF_STEREO_COUNT>
0

> <PUBCHEM_ISOTOPIC_ATOM_COUNT>
0

> <PUBCHEM_COMPONENT_COUNT>
1

> <PUBCHEM_CACTVS_TAUTO_COUNT>
5

> <PUBCHEM_CONFORMER_ID>
0180428C00000002

> <PUBCHEM_MMFF94_ENERGY>
80.1623

> <PUBCHEM_FEATURE_SELFOVERLAP>
73.786

> <PUBCHEM_SHAPE_FINGERPRINT>
10162869 55 18273216404704847721
10674148 151 12679463089281306909
10883706 142 18341895190683379991
11409948 35 17168135694984853778
11443803 9 16774079565925858846
12013929 2 17385723599654461353
12522641 33 14707206613327641977
12559415 90 18343019983080049793
12838863 1 18343586226403066352
14040221 8 14273736244483472175
14344974 52 15267337440177595561
14359421 15 17314224464359094834
15065858 18 17749110032735397417
15289351 153 18334856091367670241
15840311 113 18187087307651676404
16728433 110 16917345940110326305
20105231 36 17821729412843603794
21057603 192 17168419359704101084
21102433 48 17917990568538083727
21591340 7 17918276441618554264
21792934 111 16443066131395772556
21895431 317 18339643331131354754
232437 2 18412827984458013939
24893992 56 17418373618583881322
3092352 35 18202282503092934823
3525247 94 17988645164190013423
44426699 60 16845574209984075839
4874694 18 18410295818102301827
5381727 24 18131352999226099039
6081469 158 17967817150132885540

> <PUBCHEM_SHAPE_MULTIPOLES>
730.86
54.02
2.06
1.3
86.33
0.77
0
-20.08
2.77
-7.28
0.2
2.61
-0.09
-0.21

> <PUBCHEM_SHAPE_SELFOVERLAP>
1571.16

> <PUBCHEM_SHAPE_VOLUME>
408.4

> <PUBCHEM_COORDINATE_TYPE>
2
5
10

$$$$
10907042
  -OEChem-11282412143D

 63 67  0     0  0  0  0  0  0999 V2000
    1.8429    0.0665   -2.0427 O   0  0  0  0  0  0  0  0  0  0  0  0
   -6.3556    2.6223   -0.3716 O   0  0  0  0  0  0  0  0  0  0  0  0
   -8.6574    1.2126    0.2886 O   0  0  0  0  0  0  0  0  0  0  0  0
    7.2264    0.0074    1.5937 O   0  0  0  0  0  0  0  0  0  0  0  0
   -2.6002   -0.8072   -0.3003 N   0  0  0  0  0  0  0  0  0  0  0  0
   -0.1160    0.4252   -0.8702 N   0  0  0  0  0  0  0  0  0  0  0  0
   -3.7478   -2.8045    0.2893 N   0  0  0  0  0  0  0  0  0  0  0  0
    1.9672    1.0017    0.0760 N   0  0  0  0  0  0  0  0  0  0  0  0
   -6.1258   -2.8022    0.6795 N   0  0  0  0  0  0  0  0  0  0  0  0
   -1.8077   -0.2441    0.8025 C   0  0  0  0  0  0  0  0  0  0  0  0
   -1.8392   -1.2317   -1.4810 C   0  0  0  0  0  0  0  0  0  0  0  0
   -0.8882    0.8696    0.2976 C   0  0  0  0  0  0  0  0  0  0  0  0
   -0.9411   -0.0949   -1.9602 C   0  0  0  0  0  0  0  0  0  0  0  0
   -3.7925   -1.4626    0.0270 C   0  0  0  0  0  0  0  0  0  0  0  0
    1.2868    0.4626   -1.0151 C   0  0  0  0  0  0  0  0  0  0  0  0
   -5.0192   -0.7585    0.0869 C   0  0  0  0  0  0  0  0  0  0  0  0
   -6.1746   -1.4833    0.4223 C   0  0  0  0  0  0  0  0  0  0  0  0
   -5.0822    0.6204   -0.1798 C   0  0  0  0  0  0  0  0  0  0  0  0
   -7.3817   -0.7909    0.4814 C   0  0  0  0  0  0  0  0  0  0  0  0
   -6.3019    1.2869   -0.1135 C   0  0  0  0  0  0  0  0  0  0  0  0
   -4.9154   -3.3912    0.5985 C   0  0  0  0  0  0  0  0  0  0  0  0
   -7.4527    0.5802    0.2175 C   0  0  0  0  0  0  0  0  0  0  0  0
    3.3072    0.7487    0.4622 C   0  0  0  0  0  0  0  0  0  0  0  0
    4.0597   -0.1993   -0.2265 C   0  0  0  0  0  0  0  0  0  0  0  0
    3.8647    1.4494    1.5287 C   0  0  0  0  0  0  0  0  0  0  0  0
    5.3784   -0.4483    0.1539 C   0  0  0  0  0  0  0  0  0  0  0  0
    5.1834    1.2004    1.9090 C   0  0  0  0  0  0  0  0  0  0  0  0
    5.9402    0.2515    1.2216 C   0  0  0  0  0  0  0  0  0  0  0  0
   -6.1784    3.5049    0.7352 C   0  0  0  0  0  0  0  0  0  0  0  0
   -9.4324    1.2665   -0.9073 C   0  0  0  0  0  0  0  0  0  0  0  0
    8.1796   -0.0846    0.5934 C   0  0  0  0  0  0  0  0  0  0  0  0
    8.1828    0.8542   -0.4225 C   0  0  0  0  0  0  0  0  0  0  0  0
    9.1032   -1.1132    0.6353 C   0  0  0  0  0  0  0  0  0  0  0  0
    9.1423    0.7610   -1.4308 C   0  0  0  0  0  0  0  0  0  0  0  0
   10.0627   -1.2063   -0.3728 C   0  0  0  0  0  0  0  0  0  0  0  0
   10.0823   -0.2692   -1.4058 C   0  0  0  0  0  0  0  0  0  0  0  0
   -1.2100   -1.0448    1.2560 H   0  0  0  0  0  0  0  0  0  0  0  0
   -2.4594    0.1644    1.5844 H   0  0  0  0  0  0  0  0  0  0  0  0
   -2.5187   -1.5155   -2.2935 H   0  0  0  0  0  0  0  0  0  0  0  0
   -1.2346   -2.1108   -1.2261 H   0  0  0  0  0  0  0  0  0  0  0  0
   -0.2583    1.1955    1.1253 H   0  0  0  0  0  0  0  0  0  0  0  0
   -1.4816    1.7334   -0.0255 H   0  0  0  0  0  0  0  0  0  0  0  0
   -1.5501    0.7409   -2.3262 H   0  0  0  0  0  0  0  0  0  0  0  0
   -0.3254   -0.4396   -2.7965 H   0  0  0  0  0  0  0  0  0  0  0  0
   -4.1946    1.1898   -0.4447 H   0  0  0  0  0  0  0  0  0  0  0  0
    1.4831    1.6770    0.6572 H   0  0  0  0  0  0  0  0  0  0  0  0
   -8.2933   -1.3278    0.7400 H   0  0  0  0  0  0  0  0  0  0  0  0
   -4.8828   -4.4536    0.8068 H   0  0  0  0  0  0  0  0  0  0  0  0
    3.6675   -0.8020   -1.0363 H   0  0  0  0  0  0  0  0  0  0  0  0
    3.2855    2.1912    2.0723 H   0  0  0  0  0  0  0  0  0  0  0  0
    5.9349   -1.2149   -0.3792 H   0  0  0  0  0  0  0  0  0  0  0  0
    5.6158    1.7487    2.7414 H   0  0  0  0  0  0  0  0  0  0  0  0
   -5.1892    3.3644    1.1826 H   0  0  0  0  0  0  0  0  0  0  0  0
   -6.2542    4.5325    0.3694 H   0  0  0  0  0  0  0  0  0  0  0  0
   -6.9576    3.3421    1.4865 H   0  0  0  0  0  0  0  0  0  0  0  0
   -8.8910    1.8018   -1.6938 H   0  0  0  0  0  0  0  0  0  0  0  0
  -10.3586    1.8059   -0.6914 H   0  0  0  0  0  0  0  0  0  0  0  0
   -9.6859    0.2569   -1.2458 H   0  0  0  0  0  0  0  0  0  0  0  0
    7.4770    1.6792   -0.4517 H   0  0  0  0  0  0  0  0  0  0  0  0
    9.0888   -1.8437    1.4386 H   0  0  0  0  0  0  0  0  0  0  0  0
    9.1610    1.4937   -2.2324 H   0  0  0  0  0  0  0  0  0  0  0  0
   10.7948   -2.0084   -0.3533 H   0  0  0  0  0  0  0  0  0  0  0  0
   10.8301   -0.3411   -2.1900 H   0  0  0  0  0  0  0  0  0  0  0  0
  1 15  2  0  0  0  0
  2 20  1  0  0  0  0
  2 29  1  0  0  0  0
  3 22  1  0  0  0  0
  3 30  1  0  0  0  0
  4 28  1  0  0  0  0
  4 31  1  0  0  0  0
  5 10  1  0  0  0  0
  5 11  1  0  0  0  0
  5 14  1  0  0  0  0
  6 12  1  0  0  0  0
  6 13  1  0  0  0  0
  6 15  1  0  0  0  0
  7 14  2  0  0  0  0
  7 21  1  0  0  0  0
  8 15  1  0  0  0  0
  8 23  1  0  0  0  0
  8 46  1  0  0  0  0
  9 17  1  0  0  0  0
  9 21  2  0  0  0  0
 10 12  1  0  0  0  0
 10 37  1  0  0  0  0
 10 38  1  0  0  0  0
 11 13  1  0  0  0  0
 11 39  1  0  0  0  0
 11 40  1  0  0  0  0
 12 41  1  0  0  0  0
 12 42  1  0  0  0  0
 13 43  1  0  0  0  0
 13 44  1  0  0  0  0
 14 16  1  0  0  0  0
 16 17  1  0  0  0  0
 16 18  2  0  0  0  0
 17 19  2  0  0  0  0
 18 20  1  0  0  0  0
 18 45  1  0  0  0  0
 19 22  1  0  0  0  0
 19 47  1  0  0  0  0
 20 22  2  0  0  0  0
 21 48  1  0  0  0  0
 23 24  2  0  0  0  0
 23 25  1  0  0  0  0
 24 26  1  0  0  0  0
 24 49  1  0  0  0  0
 25 27  2  0  0  0  0
 25 50  1  0  0  0  0
 26 28  2  0  0  0  0
 26 51  1  0  0  0  0
 27 28  1  0  0  0  0
 27 52  1  0  0  0  0
 29 53  1  0  0  0  0
 29 54  1  0  0  0  0
 29 55  1  0  0  0  0
 30 56  1  0  0  0  0
 30 57  1  0  0  0  0
 30 58  1  0  0  0  0
 31 32  2  0  0  0  0
 31 33  1  0  0  0  0
 32 34  1  0  0  0  0
 32 59  1  0  0  0  0
 33 35  2  0  0  0  0
 33 60  1  0  0  0  0
 34 36  2  0  0  0  0
 34 61  1  0  0  0  0
 35 36  1  0  0  0  0
 35 62  1  0  0  0  0
 36 63  1  0  0  0  0
M  END
> <PUBCHEM_COMPOUND_CID>
10907042

> <PUBCHEM_CONFORMER_RMSD>
1

> <PUBCHEM_CONFORMER_DIVERSEORDER>
1
131
170
49
93
99
133
24
157
175
34
140
132
159
36
105
113
22
192
184
41
163
44
46
141
167
13
149
91
185
189
130
27
153
121
86
128
28
70
139
190
39
51
148
19
183
171
142
69
82
76
123
96
12
162
33
127
186
63
81
124
45
58
187
182
104
30
55
98
137
150
78
77
17
172
61
95
155
188
26
29
165
109
85
174
64
88
23
176
89
21
102
47
118
79
116
160
38
54
16
114
84
152
134
31
164
65
151
181
7
112
35
179
18
178
100
108
11
57
191
173
87
5
180
117
37
20
101
67
3
103
10
56
62
119
9
48
72
68
97
83
25
135
73
43
2
166
161
8
145
158
120
156
71
125
32
154
15
66
94
110
50
169
4
177
42
168
6
146
52
75
80
126
122
107
14
129
60
40
53
106
90
144
74
92
138
59
143
115
147
136
111

> <PUBCHEM_MMFF94_PARTIAL_CHARGES>
48
1 -0.57
10 0.37
11 0.37
12 0.3
13 0.3
14 0.41
15 0.69
17 0.31
18 -0.15
19 -0.15
2 -0.36
20 0.08
21 0.47
22 0.08
23 0.12
24 -0.15
25 -0.15
26 -0.15
27 -0.15
28 0.08
29 0.28
3 -0.36
30 0.28
31 0.08
32 -0.15
33 -0.15
34 -0.15
35 -0.15
36 -0.15
4 -0.17
45 0.15
46 0.37
47 0.15
48 0.15
49 0.15
5 -0.84
50 0.15
51 0.15
52 0.15
59 0.15
6 -0.66
60 0.15
61 0.15
62 0.15
63 0.15
7 -0.62
8 -0.55
9 -0.62

> <PUBCHEM_EFFECTIVE_ROTOR_COUNT>
9.2

> <PUBCHEM_PHARMACOPHORE_FEATURES>
12
1 1 acceptor
1 2 acceptor
1 3 acceptor
1 4 acceptor
1 8 donor
3 5 7 14 cation
3 7 9 21 cation
6 16 17 18 19 20 22 rings
6 23 24 25 26 27 28 rings
6 31 32 33 34 35 36 rings
6 5 6 10 11 12 13 rings
6 7 9 14 16 17 21 rings

> <PUBCHEM_HEAVY_ATOM_COUNT>
36

> <PUBCHEM_ATOM_DEF_STEREO_COUNT>
0

> <PUBCHEM_ATOM_UDEF_STEREO_COUNT>
0

> <PUBCHEM_BOND_DEF_STEREO_COUNT>
0

> <PUBCHEM_BOND_UDEF_STEREO_COUNT>
0

> <PUBCHEM_ISOTOPIC_ATOM_COUNT>
0

> <PUBCHEM_COMPONENT_COUNT>
1

> <PUBCHEM_CACTVS_TAUTO_COUNT>
2

> <PUBCHEM_CONFORMER_ID>
00A66DA200000001

> <PUBCHEM_MMFF94_ENERGY>
158.0564

> <PUBCHEM_FEATURE_SELFOVERLAP>
61.061

> <PUBCHEM_SHAPE_FINGERPRINT>
10076449 9 13045944603436645951
100830 39 18410854339859863137
10299344 5 17822008722861105514
10533779 47 16988298542169511030
10580692 12 18335139778726856515
10666366 153 17989490715182090416
10674148 151 18334852827925001608
11103572 155 18260824857115826658
11443803 9 12463569573887855364
12013929 2 18342738485984443496
12133447 93 18410582760603113158
12144603 126 17821450158100851020
12539745 222 18411422839079199507
12539747 363 17458343052608814420
12841400 136 17418375813523309984
13811026 1 17274824640790153720
14117953 113 17346600785626663604
14675019 173 18343863342779463656
15021287 119 16732703853051958221
15183329 4 15140950777445633786
15289351 153 17418094274617857298
15301273 46 18202283611420882732
15392192 29 17023190443611031346
15510794 2 18202567275997880678
15980000 95 16950284009912698332
18335252 98 10953456314833748633
18365409 1 15140972802940326882
19611394 137 18202001057479603232
19841028 212 18335981949200806194
21403212 168 16200432468905552116
21591340 7 13614520758163242884
21772524 286 18263645057096763916
21792938 703 15937544838724733163
21792961 116 17561087973760435832
22164985 6 14273454795534910850
23522609 53 17459490933878495020
335507 130 15791730806774281158
3504750 166 18267860773982648399
3525247 94 14117798011884499236
3552219 110 16805322176445300900
397638 26 17774718753230600382
397638 5 14477244856111535986
4353968 344 18130780197298462719
439807 62 18412545385007155470
45270241 37 18411425047367752972
4625314 4 18409732893923179380
5028188 123 18260831544558689126
5219985 9 17022899064845723460
5381727 24 16917062283496133023
6009941 240 18411417332651687539
6081469 158 17275386495832830856
6691757 9 18408608063827281579
9663363 56 17489867130305438256
9937071 3 17989207016024640286

> <PUBCHEM_SHAPE_MULTIPOLES>
692.48
36.85
2.49
1.45
43.06
0.42
0.24
-2.22
1.06
-7.18
-0.68
2.16
-0.17
1.23

> <PUBCHEM_SHAPE_SELFOVERLAP>
1511.779

> <PUBCHEM_SHAPE_VOLUME>
372.4

> <PUBCHEM_COORDINATE_TYPE>
2
5
10

$$$$
24956525
  -OEChem-11282412143D

 74 79  0     0  0  0  0  0  0999 V2000
    6.8116   -0.9163   -0.1647 F   0  0  0  0  0  0  0  0  0  0  0  0
   -0.2806    4.3256   -1.6162 O   0  0  0  0  0  0  0  0  0  0  0  0
    3.2173    4.3229    1.2145 O   0  0  0  0  0  0  0  0  0  0  0  0
    4.7416   -5.7894   -0.2436 O   0  0  0  0  0  0  0  0  0  0  0  0
   -5.1466    1.0343    1.2630 O   0  0  0  0  0  0  0  0  0  0  0  0
   -1.9551   -4.5904   -0.7383 O   0  0  0  0  0  0  0  0  0  0  0  0
   -0.3009    3.7067    0.6558 N   0  0  0  0  0  0  0  0  0  0  0  0
    2.9410    3.0148   -0.7182 N   0  0  0  0  0  0  0  0  0  0  0  0
    2.4326   -4.3527    0.5968 N   0  0  0  0  0  0  0  0  0  0  0  0
   -1.1038   -3.2512    0.9538 N   0  0  0  0  0  0  0  0  0  0  0  0
   -4.2112   -2.8863   -1.0671 N   0  0  0  0  0  0  0  0  0  0  0  0
   -6.2427   -1.7605   -1.7067 N   0  0  0  0  0  0  0  0  0  0  0  0
    1.5623    4.9270   -0.3053 C   0  0  0  0  0  0  0  0  0  0  0  0
    1.9237    6.0430   -1.2408 C   0  0  0  0  0  0  0  0  0  0  0  0
    1.5690    6.3451    0.1856 C   0  0  0  0  0  0  0  0  0  0  0  0
    0.2234    4.2873   -0.5021 C   0  0  0  0  0  0  0  0  0  0  0  0
    2.6688    4.0553    0.1543 C   0  0  0  0  0  0  0  0  0  0  0  0
   -1.5157    3.0380    0.8079 C   0  0  0  0  0  0  0  0  0  0  0  0
    3.9291    2.0111   -0.5768 C   0  0  0  0  0  0  0  0  0  0  0  0
   -1.8756    2.5201    2.0522 C   0  0  0  0  0  0  0  0  0  0  0  0
   -2.3701    2.8861   -0.2843 C   0  0  0  0  0  0  0  0  0  0  0  0
    4.0712    1.0291   -1.5571 C   0  0  0  0  0  0  0  0  0  0  0  0
    4.7608    2.0041    0.5432 C   0  0  0  0  0  0  0  0  0  0  0  0
   -3.0896    1.8506    2.2043 C   0  0  0  0  0  0  0  0  0  0  0  0
   -3.5843    2.2164   -0.1321 C   0  0  0  0  0  0  0  0  0  0  0  0
    3.6414   -3.6594    0.1302 C   0  0  0  0  0  0  0  0  0  0  0  0
    2.3265   -5.6688   -0.0483 C   0  0  0  0  0  0  0  0  0  0  0  0
    1.2402   -3.5493    0.3355 C   0  0  0  0  0  0  0  0  0  0  0  0
    5.0447    0.0401   -1.4179 C   0  0  0  0  0  0  0  0  0  0  0  0
    5.7346    1.0150    0.6825 C   0  0  0  0  0  0  0  0  0  0  0  0
   -3.9439    1.6985    1.1122 C   0  0  0  0  0  0  0  0  0  0  0  0
    4.8708   -4.5219    0.4017 C   0  0  0  0  0  0  0  0  0  0  0  0
    3.5866   -6.4838    0.2286 C   0  0  0  0  0  0  0  0  0  0  0  0
    5.8764    0.0329   -0.2981 C   0  0  0  0  0  0  0  0  0  0  0  0
    0.0830   -4.0231    1.2026 C   0  0  0  0  0  0  0  0  0  0  0  0
   -5.4871    0.1205    0.3055 C   0  0  0  0  0  0  0  0  0  0  0  0
   -4.6886   -1.0017    0.0319 C   0  0  0  0  0  0  0  0  0  0  0  0
   -3.1992   -2.6876   -0.1639 C   0  0  0  0  0  0  0  0  0  0  0  0
   -2.0398   -3.6040   -0.0113 C   0  0  0  0  0  0  0  0  0  0  0  0
   -3.4677   -1.5279    0.5307 C   0  0  0  0  0  0  0  0  0  0  0  0
   -5.1257   -1.8714   -0.9630 C   0  0  0  0  0  0  0  0  0  0  0  0
   -6.6561    0.2839   -0.4356 C   0  0  0  0  0  0  0  0  0  0  0  0
   -6.9723   -0.6625   -1.4012 C   0  0  0  0  0  0  0  0  0  0  0  0
    1.2225    6.3620   -2.0026 H   0  0  0  0  0  0  0  0  0  0  0  0
    2.9609    6.1608   -1.5344 H   0  0  0  0  0  0  0  0  0  0  0  0
    2.3671    6.6954    0.8293 H   0  0  0  0  0  0  0  0  0  0  0  0
    0.6198    6.8348    0.3724 H   0  0  0  0  0  0  0  0  0  0  0  0
    0.2644    3.7784    1.4992 H   0  0  0  0  0  0  0  0  0  0  0  0
    2.3791    2.9512   -1.5644 H   0  0  0  0  0  0  0  0  0  0  0  0
   -1.2193    2.6304    2.9117 H   0  0  0  0  0  0  0  0  0  0  0  0
   -2.1617    3.2623   -1.2762 H   0  0  0  0  0  0  0  0  0  0  0  0
    3.4291    1.0226   -2.4342 H   0  0  0  0  0  0  0  0  0  0  0  0
    4.7104    2.7299    1.3426 H   0  0  0  0  0  0  0  0  0  0  0  0
    3.7601   -2.7034    0.6531 H   0  0  0  0  0  0  0  0  0  0  0  0
    3.5692   -3.4524   -0.9456 H   0  0  0  0  0  0  0  0  0  0  0  0
    2.2026   -5.5527   -1.1331 H   0  0  0  0  0  0  0  0  0  0  0  0
    1.4724   -6.2380    0.3302 H   0  0  0  0  0  0  0  0  0  0  0  0
   -3.3646    1.4481    3.1753 H   0  0  0  0  0  0  0  0  0  0  0  0
   -4.2388    2.1273   -0.9949 H   0  0  0  0  0  0  0  0  0  0  0  0
    0.9699   -3.5579   -0.7288 H   0  0  0  0  0  0  0  0  0  0  0  0
    1.4318   -2.4983    0.5920 H   0  0  0  0  0  0  0  0  0  0  0  0
    5.1549   -0.7255   -2.1802 H   0  0  0  0  0  0  0  0  0  0  0  0
    6.3829    1.0079    1.5538 H   0  0  0  0  0  0  0  0  0  0  0  0
    5.0302   -4.6726    1.4763 H   0  0  0  0  0  0  0  0  0  0  0  0
    5.7642   -4.0332   -0.0002 H   0  0  0  0  0  0  0  0  0  0  0  0
    3.7015   -6.7017    1.2975 H   0  0  0  0  0  0  0  0  0  0  0  0
    3.5355   -7.4409   -0.3005 H   0  0  0  0  0  0  0  0  0  0  0  0
    0.3256   -3.9064    2.2649 H   0  0  0  0  0  0  0  0  0  0  0  0
   -0.1608   -5.0754    1.0302 H   0  0  0  0  0  0  0  0  0  0  0  0
   -1.2327   -2.4132    1.5103 H   0  0  0  0  0  0  0  0  0  0  0  0
   -2.8639   -1.0990    1.3177 H   0  0  0  0  0  0  0  0  0  0  0  0
   -4.2754   -3.6615   -1.7124 H   0  0  0  0  0  0  0  0  0  0  0  0
   -7.3094    1.1336   -0.2654 H   0  0  0  0  0  0  0  0  0  0  0  0
   -7.8798   -0.5504   -1.9887 H   0  0  0  0  0  0  0  0  0  0  0  0
  1 34  1  0  0  0  0
  2 16  2  0  0  0  0
  3 17  2  0  0  0  0
  4 32  1  0  0  0  0
  4 33  1  0  0  0  0
  5 31  1  0  0  0  0
  5 36  1  0  0  0  0
  6 39  2  0  0  0  0
  7 16  1  0  0  0  0
  7 18  1  0  0  0  0
  7 48  1  0  0  0  0
  8 17  1  0  0  0  0
  8 19  1  0  0  0  0
  8 49  1  0  0  0  0
  9 26  1  0  0  0  0
  9 27  1  0  0  0  0
  9 28  1  0  0  0  0
 10 35  1  0  0  0  0
 10 39  1  0  0  0  0
 10 70  1  0  0  0  0
 11 38  1  0  0  0  0
 11 41  1  0  0  0  0
 11 72  1  0  0  0  0
 12 41  2  0  0  0  0
 12 43  1  0  0  0  0
 13 14  1  0  0  0  0
 13 15  1  0  0  0  0
 13 16  1  0  0  0  0
 13 17  1  0  0  0  0
 14 15  1  0  0  0  0
 14 44  1  0  0  0  0
 14 45  1  0  0  0  0
 15 46  1  0  0  0  0
 15 47  1  0  0  0  0
 18 20  2  0  0  0  0
 18 21  1  0  0  0  0
 19 22  2  0  0  0  0
 19 23  1  0  0  0  0
 20 24  1  0  0  0  0
 20 50  1  0  0  0  0
 21 25  2  0  0  0  0
 21 51  1  0  0  0  0
 22 29  1  0  0  0  0
 22 52  1  0  0  0  0
 23 30  2  0  0  0  0
 23 53  1  0  0  0  0
 24 31  2  0  0  0  0
 24 58  1  0  0  0  0
 25 31  1  0  0  0  0
 25 59  1  0  0  0  0
 26 32  1  0  0  0  0
 26 54  1  0  0  0  0
 26 55  1  0  0  0  0
 27 33  1  0  0  0  0
 27 56  1  0  0  0  0
 27 57  1  0  0  0  0
 28 35  1  0  0  0  0
 28 60  1  0  0  0  0
 28 61  1  0  0  0  0
 29 34  2  0  0  0  0
 29 62  1  0  0  0  0
 30 34  1  0  0  0  0
 30 63  1  0  0  0  0
 32 64  1  0  0  0  0
 32 65  1  0  0  0  0
 33 66  1  0  0  0  0
 33 67  1  0  0  0  0
 35 68  1  0  0  0  0
 35 69  1  0  0  0  0
 36 37  2  0  0  0  0
 36 42  1  0  0  0  0
 37 40  1  0  0  0  0
 37 41  1  0  0  0  0
 38 39  1  0  0  0  0
 38 40  2  0  0  0  0
 40 71  1  0  0  0  0
 42 43  2  0  0  0  0
 42 73  1  0  0  0  0
 43 74  1  0  0  0  0
M  END
> <PUBCHEM_COMPOUND_CID>
24956525

> <PUBCHEM_CONFORMER_RMSD>
1.6

> <PUBCHEM_CONFORMER_DIVERSEORDER>
1
83
41
12
23
59
37
106
123
95
107
80
47
147
77
146
50
93
3
118
134
72
85
67
10
121
56
70
112
135
5
136
92
149
40
86
96
145
19
111
28
132
127
130
52
98
33
126
13
148
103
125
101
133
15
26
30
54
108
115
144
94
105
53
31
63
119
7
100
2
88
120
129
27
124
21
46
143
75
42
102
29
66
61
35
81
8
44
65
139
78
62
138
49
24
34
91
137
97
116
51
45
43
140
117
82
6
36
71
114
89
22
141
84
9
4
79
73
39
64
131
58
32
109
76
99
74
122
18
110
60
142
90
14
128
11
68
55
38
57
20
113
16
87
25
104
48
69
17

> <PUBCHEM_MMFF94_PARTIAL_CHARGES>
60
1 -0.19
10 -0.73
11 0.03
12 -0.57
14 -0.2
15 -0.2
16 0.63
17 0.63
18 0.12
19 0.12
2 -0.57
20 -0.15
21 -0.15
22 -0.15
23 -0.15
24 -0.15
25 -0.15
26 0.27
27 0.27
28 0.27
29 -0.15
3 -0.57
30 -0.15
31 0.08
32 0.28
33 0.28
34 0.19
35 0.3
36 0.08
38 -0.24
39 0.71
4 -0.56
40 -0.15
41 0.11
42 -0.15
43 0.16
44 0.1
45 0.1
46 0.1
47 0.1
48 0.37
49 0.37
5 -0.17
50 0.15
51 0.15
52 0.15
53 0.15
58 0.15
59 0.15
6 -0.57
62 0.15
63 0.15
7 -0.55
70 0.37
71 0.15
72 0.27
73 0.15
74 0.15
8 -0.55
9 -0.81

> <PUBCHEM_EFFECTIVE_ROTOR_COUNT>
14.8

> <PUBCHEM_PHARMACOPHORE_FEATURES>
16
1 10 donor
1 11 donor
1 2 acceptor
1 3 acceptor
1 4 acceptor
1 5 acceptor
1 6 acceptor
1 7 donor
1 8 donor
1 9 cation
3 11 12 41 cation
5 11 37 38 40 41 rings
6 12 36 37 41 42 43 rings
6 18 20 21 24 25 31 rings
6 19 22 23 29 30 34 rings
6 4 9 26 27 32 33 rings

> <PUBCHEM_HEAVY_ATOM_COUNT>
43

> <PUBCHEM_ATOM_DEF_STEREO_COUNT>
0

> <PUBCHEM_ATOM_UDEF_STEREO_COUNT>
0

> <PUBCHEM_BOND_DEF_STEREO_COUNT>
0

> <PUBCHEM_BOND_UDEF_STEREO_COUNT>
0

> <PUBCHEM_ISOTOPIC_ATOM_COUNT>
0

> <PUBCHEM_COMPONENT_COUNT>
1

> <PUBCHEM_CACTVS_TAUTO_COUNT>
20

> <PUBCHEM_CONFORMER_ID>
017CCE6D00000001

> <PUBCHEM_MMFF94_ENERGY>
107.2682

> <PUBCHEM_FEATURE_SELFOVERLAP>
81.313

> <PUBCHEM_SHAPE_FINGERPRINT>
11093857 51 18053074484420360803
11478447 30 17902509294648415242
12120059 20 18195830655088077972
13347071 3 17690844459106410802
15001296 14 18046054123883133689
15264996 151 18262802856647239835
15264996 163 17614003984453451645
15320291 9 17543633024399970434
15320467 1 18410294739584767402
15406563 47 17900813061738317225
16992828 155 17547571479635638555
17627616 140 18336831900882766579
19958102 18 18120083142839603669
20675875 995 18337942417150438514
4394409 98 18263356065466880623
49967989 163 17185048699827572949
50677037 204 18340206297604743058
54131252 217 16621470848595453975

> <PUBCHEM_SHAPE_MULTIPOLES>
818.41
15.61
12.18
1.42
5.72
3.4
0.15
7.92
-3.54
-15.64
-0.11
1.03
-0.78
-2.49

> <PUBCHEM_SHAPE_SELFOVERLAP>
1786.386

> <PUBCHEM_SHAPE_VOLUME>
444.5

> <PUBCHEM_COORDINATE_TYPE>
2
5
10

$$$$
124111565
  -OEChem-11282412143D

 59 63  0     1  0  0  0  0  0999 V2000
   -1.2559    1.8336   -0.4918 O   0  0  0  0  0  0  0  0  0  0  0  0
   -6.2573    0.1998    2.1805 O   0  0  0  0  0  0  0  0  0  0  0  0
    5.1932    2.0113    0.4116 O   0  0  0  0  0  0  0  0  0  0  0  0
   -2.1564   -0.3476   -0.5112 N   0  0  0  0  0  0  0  0  0  0  0  0
   -5.5509    1.0779    0.1450 N   0  0  0  0  0  0  0  0  0  0  0  0
    0.0879   -0.1304   -0.1752 N   0  0  0  0  0  0  0  0  0  0  0  0
   -0.0956   -3.8756    0.1205 N   0  0  0  0  0  0  0  0  0  0  0  0
    1.8587   -2.5563    0.3953 N   0  0  0  0  0  0  0  0  0  0  0  0
   -3.5540   -0.0817   -0.7456 C   0  0  2  0  0  0  0  0  0  0  0  0
   -3.7572    0.6226   -2.0897 C   0  0  0  0  0  0  0  0  0  0  0  0
   -4.1443    0.7479    0.3951 C   0  0  0  0  0  0  0  0  0  0  0  0
   -5.2307    0.9573   -2.3052 C   0  0  0  0  0  0  0  0  0  0  0  0
   -5.8043    1.7560   -1.1354 C   0  0  0  0  0  0  0  0  0  0  0  0
   -1.6123   -1.6293   -0.3585 C   0  0  0  0  0  0  0  0  0  0  0  0
   -1.1212    0.6210   -0.3905 C   0  0  0  0  0  0  0  0  0  0  0  0
   -0.2417   -1.5043   -0.1423 C   0  0  0  0  0  0  0  0  0  0  0  0
   -6.5015    0.7698    1.1156 C   0  0  0  0  0  0  0  0  0  0  0  0
   -2.2473   -2.8528   -0.3721 C   0  0  0  0  0  0  0  0  0  0  0  0
    0.4768   -2.6455    0.1229 C   0  0  0  0  0  0  0  0  0  0  0  0
    1.3868    0.4146   -0.0256 C   0  0  0  0  0  0  0  0  0  0  0  0
   -1.4316   -3.9461   -0.1323 C   0  0  0  0  0  0  0  0  0  0  0  0
   -7.9025    1.1562    0.8550 C   0  0  0  0  0  0  0  0  0  0  0  0
    1.6564    1.2991    1.0189 C   0  0  0  0  0  0  0  0  0  0  0  0
    2.3963    0.0670   -0.9231 C   0  0  0  0  0  0  0  0  0  0  0  0
    2.9355    1.8355    1.1660 C   0  0  0  0  0  0  0  0  0  0  0  0
    3.6755    0.6034   -0.7762 C   0  0  0  0  0  0  0  0  0  0  0  0
    3.9449    1.4876    0.2685 C   0  0  0  0  0  0  0  0  0  0  0  0
   -8.8828    0.4156    1.3761 C   0  0  0  0  0  0  0  0  0  0  0  0
    6.2706    1.1498    0.2897 C   0  0  0  0  0  0  0  0  0  0  0  0
    6.2470   -0.0910    0.9266 C   0  0  0  0  0  0  0  0  0  0  0  0
    7.3795    1.5231   -0.4695 C   0  0  0  0  0  0  0  0  0  0  0  0
    7.3324   -0.9586    0.8041 C   0  0  0  0  0  0  0  0  0  0  0  0
    8.4649    0.6555   -0.5922 C   0  0  0  0  0  0  0  0  0  0  0  0
    8.4413   -0.5853    0.0448 C   0  0  0  0  0  0  0  0  0  0  0  0
   -4.1104   -1.0241   -0.7877 H   0  0  0  0  0  0  0  0  0  0  0  0
   -3.4005   -0.0154   -2.9073 H   0  0  0  0  0  0  0  0  0  0  0  0
   -3.1755    1.5502   -2.1427 H   0  0  0  0  0  0  0  0  0  0  0  0
   -4.0347    0.2087    1.3427 H   0  0  0  0  0  0  0  0  0  0  0  0
   -3.6200    1.7029    0.5173 H   0  0  0  0  0  0  0  0  0  0  0  0
   -5.7971    0.0244   -2.4186 H   0  0  0  0  0  0  0  0  0  0  0  0
   -5.3516    1.5230   -3.2357 H   0  0  0  0  0  0  0  0  0  0  0  0
   -5.3290    2.7422   -1.0770 H   0  0  0  0  0  0  0  0  0  0  0  0
   -6.8681    1.9145   -1.3146 H   0  0  0  0  0  0  0  0  0  0  0  0
   -3.3064   -2.9834   -0.5436 H   0  0  0  0  0  0  0  0  0  0  0  0
   -1.8424   -4.9510   -0.1238 H   0  0  0  0  0  0  0  0  0  0  0  0
   -8.1362    2.0508    0.2935 H   0  0  0  0  0  0  0  0  0  0  0  0
    0.8797    1.5756    1.7274 H   0  0  0  0  0  0  0  0  0  0  0  0
    2.1981   -0.6036   -1.7556 H   0  0  0  0  0  0  0  0  0  0  0  0
    2.1730   -1.7889    0.9759 H   0  0  0  0  0  0  0  0  0  0  0  0
    2.3347   -3.4400    0.5374 H   0  0  0  0  0  0  0  0  0  0  0  0
    3.1399    2.5229    1.9822 H   0  0  0  0  0  0  0  0  0  0  0  0
    4.4351    0.3355   -1.5057 H   0  0  0  0  0  0  0  0  0  0  0  0
   -9.9181    0.6986    1.2159 H   0  0  0  0  0  0  0  0  0  0  0  0
   -8.6982   -0.4806    1.9583 H   0  0  0  0  0  0  0  0  0  0  0  0
    5.4056   -0.3982    1.5419 H   0  0  0  0  0  0  0  0  0  0  0  0
    7.4030    2.4883   -0.9678 H   0  0  0  0  0  0  0  0  0  0  0  0
    7.3164   -1.9227    1.3039 H   0  0  0  0  0  0  0  0  0  0  0  0
    9.3283    0.9461   -1.1833 H   0  0  0  0  0  0  0  0  0  0  0  0
    9.2868   -1.2604   -0.0497 H   0  0  0  0  0  0  0  0  0  0  0  0
  1 15  2  0  0  0  0
  2 17  2  0  0  0  0
  3 27  1  0  0  0  0
  3 29  1  0  0  0  0
  4  9  1  0  0  0  0
  4 14  1  0  0  0  0
  4 15  1  0  0  0  0
  5 11  1  0  0  0  0
  5 13  1  0  0  0  0
  5 17  1  0  0  0  0
  6 15  1  0  0  0  0
  6 16  1  0  0  0  0
  6 20  1  0  0  0  0
  7 19  2  0  0  0  0
  7 21  1  0  0  0  0
  8 19  1  0  0  0  0
  8 49  1  0  0  0  0
  8 50  1  0  0  0  0
  9 10  1  0  0  0  0
  9 11  1  0  0  0  0
  9 35  1  0  0  0  0
 10 12  1  0  0  0  0
 10 36  1  0  0  0  0
 10 37  1  0  0  0  0
 11 38  1  0  0  0  0
 11 39  1  0  0  0  0
 12 13  1  0  0  0  0
 12 40  1  0  0  0  0
 12 41  1  0  0  0  0
 13 42  1  0  0  0  0
 13 43  1  0  0  0  0
 14 16  2  0  0  0  0
 14 18  1  0  0  0  0
 16 19  1  0  0  0  0
 17 22  1  0  0  0  0
 18 21  2  0  0  0  0
 18 44  1  0  0  0  0
 20 23  2  0  0  0  0
 20 24  1  0  0  0  0
 21 45  1  0  0  0  0
 22 28  2  0  0  0  0
 22 46  1  0  0  0  0
 23 25  1  0  0  0  0
 23 47  1  0  0  0  0
 24 26  2  0  0  0  0
 24 48  1  0  0  0  0
 25 27  2  0  0  0  0
 25 51  1  0  0  0  0
 26 27  1  0  0  0  0
 26 52  1  0  0  0  0
 28 53  1  0  0  0  0
 28 54  1  0  0  0  0
 29 30  2  0  0  0  0
 29 31  1  0  0  0  0
 30 32  1  0  0  0  0
 30 55  1  0  0  0  0
 31 33  2  0  0  0  0
 31 56  1  0  0  0  0
 32 34  2  0  0  0  0
 32 57  1  0  0  0  0
 33 34  1  0  0  0  0
 33 58  1  0  0  0  0
 34 59  1  0  0  0  0
M  END
> <PUBCHEM_COMPOUND_CID>
124111565

> <PUBCHEM_CONFORMER_RMSD>
1

> <PUBCHEM_CONFORMER_DIVERSEORDER>
1
38
31
12
13
10
17
14
45
41
33
7
46
3
22
40
36
42
15
29
6
34
37
25
18
24
26
5
44
43
20
30
28
16
11
39
27
9
35
32
21
4
2
8
23
19

> <PUBCHEM_MMFF94_PARTIAL_CHARGES>
48
1 -0.57
11 0.3
13 0.3
14 0.12
15 0.69
16 0.12
17 0.62
18 -0.15
19 0.41
2 -0.57
20 0.12
21 0.16
22 -0.14
23 -0.15
24 -0.15
25 -0.15
26 -0.15
27 0.08
28 -0.3
29 0.08
3 -0.17
30 -0.15
31 -0.15
32 -0.15
33 -0.15
34 -0.15
4 -0.48
44 0.15
45 0.15
46 0.15
47 0.15
48 0.15
49 0.4
5 -0.66
50 0.4
51 0.15
52 0.15
53 0.15
54 0.15
55 0.15
56 0.15
57 0.15
58 0.15
59 0.15
6 -0.29
7 -0.62
8 -0.9
9 0.3

> <PUBCHEM_EFFECTIVE_ROTOR_COUNT>
7.2

> <PUBCHEM_PHARMACOPHORE_FEATURES>
11
1 1 acceptor
1 2 acceptor
1 28 hydrophobe
1 3 acceptor
1 8 donor
3 7 8 19 cation
5 4 6 14 15 16 rings
6 20 23 24 25 26 27 rings
6 29 30 31 32 33 34 rings
6 5 9 10 11 12 13 rings
6 7 14 16 18 19 21 rings

> <PUBCHEM_HEAVY_ATOM_COUNT>
34

> <PUBCHEM_ATOM_DEF_STEREO_COUNT>
1

> <PUBCHEM_ATOM_UDEF_STEREO_COUNT>
0

> <PUBCHEM_BOND_DEF_STEREO_COUNT>
0

> <PUBCHEM_BOND_UDEF_STEREO_COUNT>
0

> <PUBCHEM_ISOTOPIC_ATOM_COUNT>
0

> <PUBCHEM_COMPONENT_COUNT>
1

> <PUBCHEM_CACTVS_TAUTO_COUNT>
4

> <PUBCHEM_CONFORMER_ID>
0765CACD00000001

> <PUBCHEM_MMFF94_ENERGY>
142.5179

> <PUBCHEM_FEATURE_SELFOVERLAP>
55.919

> <PUBCHEM_SHAPE_FINGERPRINT>
10 15 18040999540154620113
10165383 225 18411421713423338105
10883706 142 17489871535971407493
11135609 99 14418715713476924569
11135926 11 18411411787938351863
11621639 183 17313947382374415285
11796584 16 18339642339446869038
12643181 29 18411410740340975106
13914758 101 16200434663285777904
13947920 75 16272209678593225841
14028597 1 17916870110111367859
14040221 275 18189077398687725187
14444916 359 18409452470670533598
14849402 71 18413388726603202969
15064986 266 17970075633537902738
15183329 4 18412536605540101580
15230672 131 18334286558047054962
15357212 105 17973731565029327132
15849732 13 17530964679268920964
15927050 60 18411130355374347974
17913733 40 18410297987107512091
18608769 82 18408325510122747763
19611394 137 17385732417439247305
20105231 36 17603588509010368082
21279426 13 18341046411358133870
21362857 166 8646500656805971416
21756936 100 17917713505209378751
21781051 124 18041297516301022378
21781055 127 18129123168123082460
23389318 12 7925623406557180408
23559900 14 18269827783310195896
24893992 56 18202001062649529577
249057 3 18335419093562072052
3178227 256 18335707138920880305
335352 9 18412259558510974236
4073 2 18191582159511469240
4093350 32 17131836417820606902
4408954 64 15723366630886545451
474113 269 14548470073008461340
4938544 92 14274001196763264631
5265222 85 18190185783944117958
5385378 56 18410577240774091587
57035037 87 14476952398797539354
58260988 521 18113909264721153545
59755656 215 18411130308845976494
59755656 520 18412541037492514591
6086070 43 17775279521171571122
6201320 215 16199595653929956360
6523845 18 18412543219763279417
6669772 16 18342178825697098502
6698420 124 18201441402018649385
7226269 152 18201718466132804184
9663363 56 9367347016235171157

> <PUBCHEM_SHAPE_MULTIPOLES>
657.19
24.24
3.07
1.41
9.51
4.15
0.23
-12.68
-5.65
-0.42
-0.04
-2.62
-0.54
-0.09

> <PUBCHEM_SHAPE_SELFOVERLAP>
1442.311

> <PUBCHEM_SHAPE_VOLUME>
350.8

> <PUBCHEM_COORDINATE_TYPE>
2
5
10

$$$$
5330548
  -OEChem-11282412143D

 44 47  0     0  0  0  0  0  0999 V2000
    4.8207   -0.3956    0.7781 O   0  0  0  0  0  0  0  0  0  0  0  0
   -2.4912   -3.0684   -0.9208 O   0  0  0  0  0  0  0  0  0  0  0  0
    4.7052    1.2938   -0.8342 O   0  0  0  0  0  0  0  0  0  0  0  0
   -0.6587   -0.5702    0.8444 N   0  0  0  0  0  0  0  0  0  0  0  0
   -3.1112    0.3809   -0.4970 N   0  0  0  0  0  0  0  0  0  0  0  0
    1.3228   -1.2322    0.0618 C   0  0  0  0  0  0  0  0  0  0  0  0
   -0.9134   -1.5061   -0.1218 C   0  0  0  0  0  0  0  0  0  0  0  0
    0.6986   -0.3827    0.9779 C   0  0  0  0  0  0  0  0  0  0  0  0
   -3.3271   -0.9334   -0.3631 C   0  0  0  0  0  0  0  0  0  0  0  0
    0.2934   -1.9348   -0.6248 C   0  0  0  0  0  0  0  0  0  0  0  0
   -2.2279   -1.9231   -0.4950 C   0  0  0  0  0  0  0  0  0  0  0  0
   -4.3109    1.0332   -0.3223 C   0  0  0  0  0  0  0  0  0  0  0  0
   -5.2775    0.0562   -0.0743 C   0  0  0  0  0  0  0  0  0  0  0  0
   -4.6161   -1.2034   -0.1062 C   0  0  0  0  0  0  0  0  0  0  0  0
    2.7301   -1.2374   -0.0082 C   0  0  0  0  0  0  0  0  0  0  0  0
    1.4143    0.4650    1.8307 C   0  0  0  0  0  0  0  0  0  0  0  0
    3.4591   -0.3945    0.8385 C   0  0  0  0  0  0  0  0  0  0  0  0
    2.8092    0.4428    1.7430 C   0  0  0  0  0  0  0  0  0  0  0  0
   -4.6116    2.3992   -0.3648 C   0  0  0  0  0  0  0  0  0  0  0  0
   -6.6098    0.4601    0.1425 C   0  0  0  0  0  0  0  0  0  0  0  0
   -5.9397    2.7761   -0.1465 C   0  0  0  0  0  0  0  0  0  0  0  0
   -6.9252    1.8232    0.1035 C   0  0  0  0  0  0  0  0  0  0  0  0
    6.8674    0.4374   -0.1118 C   0  0  0  0  0  0  0  0  0  0  0  0
    7.5136    1.4043   -1.1008 C   0  0  0  0  0  0  0  0  0  0  0  0
    5.3577    0.5317   -0.1339 C   0  0  0  0  0  0  0  0  0  0  0  0
    9.0282    1.2780   -1.0951 C   0  0  0  0  0  0  0  0  0  0  0  0
    0.4273   -2.6739   -1.4035 H   0  0  0  0  0  0  0  0  0  0  0  0
   -1.3538   -0.0981    1.4062 H   0  0  0  0  0  0  0  0  0  0  0  0
   -2.2377    0.8408   -0.7170 H   0  0  0  0  0  0  0  0  0  0  0  0
   -5.0671   -2.1743    0.0474 H   0  0  0  0  0  0  0  0  0  0  0  0
    3.2431   -1.8887   -0.7107 H   0  0  0  0  0  0  0  0  0  0  0  0
    0.9093    1.1170    2.5353 H   0  0  0  0  0  0  0  0  0  0  0  0
    3.3889    1.0916    2.3956 H   0  0  0  0  0  0  0  0  0  0  0  0
   -3.8450    3.1418   -0.5592 H   0  0  0  0  0  0  0  0  0  0  0  0
   -7.3879   -0.2721    0.3383 H   0  0  0  0  0  0  0  0  0  0  0  0
   -6.2066    3.8295   -0.1725 H   0  0  0  0  0  0  0  0  0  0  0  0
   -7.9511    2.1405    0.2702 H   0  0  0  0  0  0  0  0  0  0  0  0
    7.1464   -0.5919   -0.3638 H   0  0  0  0  0  0  0  0  0  0  0  0
    7.2085    0.6619    0.9048 H   0  0  0  0  0  0  0  0  0  0  0  0
    7.1391    1.2104   -2.1131 H   0  0  0  0  0  0  0  0  0  0  0  0
    7.2340    2.4351   -0.8524 H   0  0  0  0  0  0  0  0  0  0  0  0
    9.4699    1.9801   -1.8091 H   0  0  0  0  0  0  0  0  0  0  0  0
    9.3387    0.2667   -1.3768 H   0  0  0  0  0  0  0  0  0  0  0  0
    9.4365    1.4996   -0.1039 H   0  0  0  0  0  0  0  0  0  0  0  0
  1 17  1  0  0  0  0
  1 25  1  0  0  0  0
  2 11  2  0  0  0  0
  3 25  2  0  0  0  0
  4  7  1  0  0  0  0
  4  8  1  0  0  0  0
  4 28  1  0  0  0  0
  5  9  1  0  0  0  0
  5 12  1  0  0  0  0
  5 29  1  0  0  0  0
  6  8  2  0  0  0  0
  6 10  1  0  0  0  0
  6 15  1  0  0  0  0
  7 10  2  0  0  0  0
  7 11  1  0  0  0  0
  8 16  1  0  0  0  0
  9 11  1  0  0  0  0
  9 14  2  0  0  0  0
 10 27  1  0  0  0  0
 12 13  1  0  0  0  0
 12 19  2  0  0  0  0
 13 14  1  0  0  0  0
 13 20  2  0  0  0  0
 14 30  1  0  0  0  0
 15 17  2  0  0  0  0
 15 31  1  0  0  0  0
 16 18  2  0  0  0  0
 16 32  1  0  0  0  0
 17 18  1  0  0  0  0
 18 33  1  0  0  0  0
 19 21  1  0  0  0  0
 19 34  1  0  0  0  0
 20 22  1  0  0  0  0
 20 35  1  0  0  0  0
 21 22  2  0  0  0  0
 21 36  1  0  0  0  0
 22 37  1  0  0  0  0
 23 24  1  0  0  0  0
 23 25  1  0  0  0  0
 23 38  1  0  0  0  0
 23 39  1  0  0  0  0
 24 26  1  0  0  0  0
 24 40  1  0  0  0  0
 24 41  1  0  0  0  0
 26 42  1  0  0  0  0
 26 43  1  0  0  0  0
 26 44  1  0  0  0  0
M  END
> <PUBCHEM_COMPOUND_CID>
5330548

> <PUBCHEM_CONFORMER_RMSD>
1

> <PUBCHEM_CONFORMER_DIVERSEORDER>
1
25
12
65
79
42
3
89
99
37
41
36
16
18
13
11
93
64
46
56
5
100
81
75
94
54
67
23
62
90
30
63
74
19
4
43
88
73
61
31
27
78
22
76
69
8
34
10
55
15
21
80
26
95
32
28
9
68
96
20
59
70
77
51
86
6
29
53
7
2
52
60
72
33
92
57
48
83
24
84
47
58
85
82
71
45
87
39
40
49
66
98
14
35
38
44
17
97
91
50

> <PUBCHEM_MMFF94_PARTIAL_CHARGES>
33
1 -0.23
10 -0.15
11 0.74
12 -0.15
14 -0.15
15 -0.15
16 -0.15
17 0.08
18 -0.15
19 -0.15
2 -0.57
20 -0.15
21 -0.15
22 -0.15
23 0.06
25 0.66
27 0.15
28 0.27
29 0.27
3 -0.57
30 0.15
31 0.15
32 0.15
33 0.15
34 0.15
35 0.15
36 0.15
37 0.15
4 0.03
5 0.03
7 -0.24
8 -0.15
9 -0.24

> <PUBCHEM_EFFECTIVE_ROTOR_COUNT>
6

> <PUBCHEM_PHARMACOPHORE_FEATURES>
11
1 2 acceptor
1 26 hydrophobe
1 3 acceptor
1 4 cation
1 4 donor
1 5 cation
1 5 donor
5 4 6 7 8 10 rings
5 5 9 12 13 14 rings
6 12 13 19 20 21 22 rings
6 6 8 15 16 17 18 rings

> <PUBCHEM_HEAVY_ATOM_COUNT>
26

> <PUBCHEM_ATOM_DEF_STEREO_COUNT>
0

> <PUBCHEM_ATOM_UDEF_STEREO_COUNT>
0

> <PUBCHEM_BOND_DEF_STEREO_COUNT>
0

> <PUBCHEM_BOND_UDEF_STEREO_COUNT>
0

> <PUBCHEM_ISOTOPIC_ATOM_COUNT>
0

> <PUBCHEM_COMPONENT_COUNT>
1

> <PUBCHEM_CACTVS_TAUTO_COUNT>
15

> <PUBCHEM_CONFORMER_ID>
0051567400000001

> <PUBCHEM_MMFF94_ENERGY>
57.3607

> <PUBCHEM_FEATURE_SELFOVERLAP>
56.011

> <PUBCHEM_SHAPE_FINGERPRINT>
10 15 18259988154757555473
10165383 225 18202006521632330555
10190206 1 17774731883088101848
10369192 42 18411981364567388349
10429389 143 17386276603371292445
10554248 39 18193819484088355839
106641 1 17095246934527653067
10670039 82 18411132554512998645
10730089 173 18410575089000569052
11408170 253 18342185453101148280
11796584 16 9871479715856354105
12120059 9 16343694431938223630
12202916 173 10737292346721279065
12236239 1 18114177540889103122
12390115 104 18202284676572681363
12403259 415 17988914613595593803
12596602 18 17240481378148699553
12788726 201 17417530198865877795
13383668 254 15936404576990753767
13540713 4 17058073657347055666
13540713 5 13408515250313926610
13668630 136 14836399246428026101
13690498 29 17843680203786510910
13726171 33 18118403947807741417
14251752 14 18342737417054545050
14849402 71 17168153394281453244
14931854 50 17417242127294686457
15183329 4 17346884433571619298
15238133 3 18340188735889541458
15604295 49 18268427014245294296
15685185 35 16951707968097569052
15690457 1 11240003335263970436
15706992 2 17240496814356139116
1577012 14 18333445443913598658
15961568 22 18261111838087467765
16989713 51 17702094971229985247
16994733 274 18186799223527165080
18608769 82 18341896333772895987
19611394 137 17969515977586813403
21033648 29 18129926941355920251
21095123 293 17748831821807848972
21307412 95 16271939250478070774
21315764 119 18343592845812345638
21424621 283 18113900464037888610
21637258 2 12535632652909924510
21756936 100 18040436620208155715
21792961 116 18060146444283861194
22224240 67 14779547902592127320
22393880 68 17131254865910269023
23559900 14 16773227530941185634
23576562 1 17916011554786817533
3004659 81 18342455894997289666
3009799 131 17275103947098127402
3711267 37 18187941581306055364
392239 28 15574716923517931652
4073 2 18113341907356775522
4098825 35 18335701616457918918
4107672 100 18341615966343743070
4516262 110 17894621552458396647
465052 167 7997963592231738778
5104073 3 12902364834489577804
5265222 85 18199187472260238246
5718773 13 8790586114664509585
5758199 1 17167582696206496712
5911458 16 18040725783424636148
59682541 35 11819277789425569580
6328613 192 18409449176430234208
7808743 9 18410006637779409111
9689198 14 18186807967579016804
9953998 17 14996286937531569273

> <PUBCHEM_SHAPE_MULTIPOLES>
507.5
21.8
2.48
1.16
24.56
0
-0.39
-17.56
6.42
-3.37
0.77
1.43
-0.11
-1.25

> <PUBCHEM_SHAPE_SELFOVERLAP>
1129.243

> <PUBCHEM_SHAPE_VOLUME>
271.2

> <PUBCHEM_COORDINATE_TYPE>
2
5
10

$$$$
71113742
  -OEChem-11282412143D

 64 68  0     1  0  0  0  0  0999 V2000
   -8.4186    1.2995   -0.5432 S   0  0  0  0  0  0  0  0  0  0  0  0
   -8.9991    0.6096   -1.6736 O   0  0  0  0  0  0  0  0  0  0  0  0
   -8.4317    2.7417   -0.4414 O   0  0  0  0  0  0  0  0  0  0  0  0
    5.6850    2.6248   -0.7996 O   0  0  0  0  0  0  0  0  0  0  0  0
   -6.8095    0.7485   -0.3307 N   0  0  0  0  0  0  0  0  0  0  0  0
    5.5907    5.0819    0.6316 N   0  0  0  0  0  0  0  0  0  0  0  0
    4.2866    0.4066    0.1862 N   0  0  0  0  0  0  0  0  0  0  0  0
    2.0978   -0.4895    0.2038 N   0  0  0  0  0  0  0  0  0  0  0  0
    5.3425   -2.1127   -0.1569 N   0  0  0  0  0  0  0  0  0  0  0  0
    3.6437   -4.3101   -0.3131 N   0  0  0  0  0  0  0  0  0  0  0  0
   -4.3347   -0.5097    0.5515 C   0  0  0  0  0  0  0  0  0  0  0  0
   -4.6250    0.9820    0.7917 C   0  0  0  0  0  0  0  0  0  0  0  0
   -5.1126   -1.0081   -0.6788 C   0  0  0  0  0  0  0  0  0  0  0  0
   -6.1257    1.2398    0.9014 C   0  0  0  0  0  0  0  0  0  0  0  0
   -6.6045   -0.7145   -0.5420 C   0  0  0  0  0  0  0  0  0  0  0  0
   -2.8479   -0.7898    0.4389 C   0  0  0  0  0  0  0  0  0  0  0  0
   -2.1052   -0.2112   -0.5903 C   0  0  0  0  0  0  0  0  0  0  0  0
   -2.2238   -1.6263    1.3645 C   0  0  0  0  0  0  0  0  0  0  0  0
   -9.1409    0.6371    0.9354 C   0  0  0  0  0  0  0  0  0  0  0  0
   -0.7383   -0.4690   -0.6938 C   0  0  0  0  0  0  0  0  0  0  0  0
   -0.8570   -1.8840    1.2608 C   0  0  0  0  0  0  0  0  0  0  0  0
   -0.1142   -1.3055    0.2316 C   0  0  0  0  0  0  0  0  0  0  0  0
    4.9616    2.7144    0.4337 C   0  0  1  0  0  0  0  0  0  0  0  0
    4.4627    4.1473    0.6387 C   0  0  0  0  0  0  0  0  0  0  0  0
    3.7990    1.7339    0.3632 C   0  0  0  0  0  0  0  0  0  0  0  0
    1.3039   -1.5727    0.1242 C   0  0  0  0  0  0  0  0  0  0  0  0
    6.3488    4.9487   -0.6134 C   0  0  0  0  0  0  0  0  0  0  0  0
    6.8078    3.5081   -0.8001 C   0  0  0  0  0  0  0  0  0  0  0  0
    3.4257   -0.7196    0.1055 C   0  0  0  0  0  0  0  0  0  0  0  0
    1.7789   -2.8623   -0.0477 C   0  0  0  0  0  0  0  0  0  0  0  0
    4.0078   -1.9652   -0.0674 C   0  0  0  0  0  0  0  0  0  0  0  0
    3.1484   -3.0709   -0.1458 C   0  0  0  0  0  0  0  0  0  0  0  0
    5.8173   -3.3600   -0.3239 C   0  0  0  0  0  0  0  0  0  0  0  0
    4.9804   -4.4426   -0.4008 C   0  0  0  0  0  0  0  0  0  0  0  0
   -4.7195   -1.0593    1.4227 H   0  0  0  0  0  0  0  0  0  0  0  0
   -4.2216    1.5908   -0.0275 H   0  0  0  0  0  0  0  0  0  0  0  0
   -4.1283    1.3197    1.7096 H   0  0  0  0  0  0  0  0  0  0  0  0
   -4.9628   -2.0871   -0.8078 H   0  0  0  0  0  0  0  0  0  0  0  0
   -4.7404   -0.5266   -1.5921 H   0  0  0  0  0  0  0  0  0  0  0  0
   -6.5160    0.7267    1.7865 H   0  0  0  0  0  0  0  0  0  0  0  0
   -6.2882    2.3158    1.0204 H   0  0  0  0  0  0  0  0  0  0  0  0
   -7.1018   -1.0395   -1.4612 H   0  0  0  0  0  0  0  0  0  0  0  0
   -7.0195   -1.2832    0.2967 H   0  0  0  0  0  0  0  0  0  0  0  0
   -2.5700    0.4427   -1.3227 H   0  0  0  0  0  0  0  0  0  0  0  0
   -2.7883   -2.0837    2.1726 H   0  0  0  0  0  0  0  0  0  0  0  0
  -10.2112    0.8585    0.8970 H   0  0  0  0  0  0  0  0  0  0  0  0
   -9.0108   -0.4445    0.9701 H   0  0  0  0  0  0  0  0  0  0  0  0
   -8.7192    1.1244    1.8146 H   0  0  0  0  0  0  0  0  0  0  0  0
   -0.1762   -0.0116   -1.5047 H   0  0  0  0  0  0  0  0  0  0  0  0
   -0.3886   -2.5345    1.9958 H   0  0  0  0  0  0  0  0  0  0  0  0
    5.6325    2.4210    1.2534 H   0  0  0  0  0  0  0  0  0  0  0  0
    3.7607    4.4322   -0.1547 H   0  0  0  0  0  0  0  0  0  0  0  0
    3.9295    4.2344    1.5916 H   0  0  0  0  0  0  0  0  0  0  0  0
    3.1493    1.9963   -0.4812 H   0  0  0  0  0  0  0  0  0  0  0  0
    3.2064    1.8028    1.2833 H   0  0  0  0  0  0  0  0  0  0  0  0
    5.7163    5.2576   -1.4541 H   0  0  0  0  0  0  0  0  0  0  0  0
    7.2132    5.6202   -0.5896 H   0  0  0  0  0  0  0  0  0  0  0  0
    7.3144    3.4003   -1.7644 H   0  0  0  0  0  0  0  0  0  0  0  0
    7.5143    3.2020   -0.0190 H   0  0  0  0  0  0  0  0  0  0  0  0
    6.2046    4.8635    1.4169 H   0  0  0  0  0  0  0  0  0  0  0  0
    5.2251    0.2745   -0.1776 H   0  0  0  0  0  0  0  0  0  0  0  0
    1.0976   -3.7072   -0.1116 H   0  0  0  0  0  0  0  0  0  0  0  0
    6.8933   -3.4572   -0.3936 H   0  0  0  0  0  0  0  0  0  0  0  0
    5.3529   -5.4503   -0.5351 H   0  0  0  0  0  0  0  0  0  0  0  0
  1  2  2  0  0  0  0
  1  3  2  0  0  0  0
  1  5  1  0  0  0  0
  1 19  1  0  0  0  0
  4 23  1  0  0  0  0
  4 28  1  0  0  0  0
  5 14  1  0  0  0  0
  5 15  1  0  0  0  0
  6 24  1  0  0  0  0
  6 27  1  0  0  0  0
  6 60  1  0  0  0  0
  7 25  1  0  0  0  0
  7 29  1  0  0  0  0
  7 61  1  0  0  0  0
  8 26  1  0  0  0  0
  8 29  2  0  0  0  0
  9 31  2  0  0  0  0
  9 33  1  0  0  0  0
 10 32  2  0  0  0  0
 10 34  1  0  0  0  0
 11 12  1  0  0  0  0
 11 13  1  0  0  0  0
 11 16  1  0  0  0  0
 11 35  1  0  0  0  0
 12 14  1  0  0  0  0
 12 36  1  0  0  0  0
 12 37  1  0  0  0  0
 13 15  1  0  0  0  0
 13 38  1  0  0  0  0
 13 39  1  0  0  0  0
 14 40  1  0  0  0  0
 14 41  1  0  0  0  0
 15 42  1  0  0  0  0
 15 43  1  0  0  0  0
 16 17  2  0  0  0  0
 16 18  1  0  0  0  0
 17 20  1  0  0  0  0
 17 44  1  0  0  0  0
 18 21  2  0  0  0  0
 18 45  1  0  0  0  0
 19 46  1  0  0  0  0
 19 47  1  0  0  0  0
 19 48  1  0  0  0  0
 20 22  2  0  0  0  0
 20 49  1  0  0  0  0
 21 22  1  0  0  0  0
 21 50  1  0  0  0  0
 22 26  1  0  0  0  0
 23 24  1  0  0  0  0
 23 25  1  0  0  0  0
 23 51  1  0  0  0  0
 24 52  1  0  0  0  0
 24 53  1  0  0  0  0
 25 54  1  0  0  0  0
 25 55  1  0  0  0  0
 26 30  2  0  0  0  0
 27 28  1  0  0  0  0
 27 56  1  0  0  0  0
 27 57  1  0  0  0  0
 28 58  1  0  0  0  0
 28 59  1  0  0  0  0
 29 31  1  0  0  0  0
 30 32  1  0  0  0  0
 30 62  1  0  0  0  0
 31 32  1  0  0  0  0
 33 34  2  0  0  0  0
 33 63  1  0  0  0  0
 34 64  1  0  0  0  0
M  END
> <PUBCHEM_COMPOUND_CID>
71113742

> <PUBCHEM_CONFORMER_RMSD>
1

> <PUBCHEM_CONFORMER_DIVERSEORDER>
1
56
54
50
16
89
91
49
78
24
46
73
38
61
60
59
40
75
83
63
55
29
77
32
45
90
85
17
18
69
65
21
53
12
15
35
26
36
14
42
30
76
43
22
64
44
80
51
20
5
47
37
8
82
88
72
66
48
68
3
79
84
19
58
27
41
13
81
23
57
33
9
52
87
25
7
62
28
74
86
39
2
67
34
10
6
4
11
31
71
70

> <PUBCHEM_MMFF94_PARTIAL_CHARGES>
40
1 1.33
10 -0.62
11 0.14
14 0.36
15 0.36
16 -0.14
17 -0.15
18 -0.15
19 0.11
2 -0.65
20 -0.15
21 -0.15
23 0.28
24 0.27
25 0.37
26 0.31
27 0.27
28 0.28
29 0.41
3 -0.65
30 -0.15
31 0.31
32 0.31
33 0.16
34 0.16
4 -0.56
44 0.15
45 0.15
49 0.15
5 -0.85
50 0.15
6 -0.9
60 0.36
61 0.4
62 0.15
63 0.15
64 0.15
7 -0.87
8 -0.62
9 -0.62

> <PUBCHEM_EFFECTIVE_ROTOR_COUNT>
8.4

> <PUBCHEM_PHARMACOPHORE_FEATURES>
14
1 10 acceptor
1 2 acceptor
1 3 acceptor
1 4 acceptor
1 6 cation
1 6 donor
1 7 donor
1 9 acceptor
3 7 8 29 cation
6 16 17 18 20 21 22 rings
6 4 6 23 24 27 28 rings
6 5 11 12 13 14 15 rings
6 8 26 29 30 31 32 rings
6 9 10 31 32 33 34 rings

> <PUBCHEM_HEAVY_ATOM_COUNT>
34

> <PUBCHEM_ATOM_DEF_STEREO_COUNT>
1

> <PUBCHEM_ATOM_UDEF_STEREO_COUNT>
0

> <PUBCHEM_BOND_DEF_STEREO_COUNT>
0

> <PUBCHEM_BOND_UDEF_STEREO_COUNT>
0

> <PUBCHEM_ISOTOPIC_ATOM_COUNT>
0

> <PUBCHEM_COMPONENT_COUNT>
1

> <PUBCHEM_CACTVS_TAUTO_COUNT>
17

> <PUBCHEM_CONFORMER_ID>
043D1C0E00000001

> <PUBCHEM_MMFF94_ENERGY>
94.2119

> <PUBCHEM_FEATURE_SELFOVERLAP>
71.108

> <PUBCHEM_SHAPE_FINGERPRINT>
10050765 1 18339081604805918770
10411042 1 18051413960366039022
10835480 77 18408885161588648291
11135609 127 18411976974968483830
11297010 23 18272094924693802428
11297750 10 17896874353827474822
11386260 185 18270402681340174534
11411753 3 18115043985948439251
12013929 112 17975155416246393900
12440610 7 17969230099684152658
12522641 68 17914341436333629038
12741549 16 18126836111460694714
12925494 130 18337111296910845792
13008946 170 18059280020667869984
13248334 5 18411138005670886066
13540713 4 18115887328436159770
13944108 23 18409730686363516296
14400156 350 18410572908306779902
14400156 413 18410846647141153045
14937079 2 18410862036910651810
15082195 135 18343865511241316152
15131766 46 18198893893675537829
15183329 4 18198902518613582675
15276724 80 18411417272717791989
15320295 44 18272645801210168991
15347591 1 18411138078052437775
15439362 3 18410012173886674250
15530121 191 18042119857528119101
15664458 105 18188774947080165114
15840311 113 18335703819860291285
15890870 6 18267869565907387976
16664035 1 18119808015439928410
17899979 129 18411987983428482344
19053607 189 18267856367082088760
19309040 13 18269836574422228294
19311894 1 17401769623405586386
19315958 150 18408325501680714165
20691028 202 18049723224709261660
21033648 29 17676210203752499491
21057603 323 17908989056785289846
23516275 100 18186794812095502421
23522609 53 17632033966027619433
23559900 14 17822304469719521174
23569943 247 10447388518050865869
24771293 8 18041557057201382733
249057 25 17774447075274304563
3411729 13 18334010640541091530
3534868 343 17702954608263729218
3918712 181 18198619020206609936
397830 11 18188220891919364187
4073 2 18334015034219477467
44317340 157 18411418397740441959
44555599 121 18129951070545869409
4516262 110 18339639048684756252
563151 97 18124309669404447942
58083652 198 18339081493816387793
58902169 19 17988070102597590255

> <PUBCHEM_SHAPE_MULTIPOLES>
656.06
26.33
6.36
1.02
50.74
4.21
-0.02
22.53
4.98
-21.91
0.41
1.15
0.16
0.68

> <PUBCHEM_SHAPE_SELFOVERLAP>
1402.254

> <PUBCHEM_SHAPE_VOLUME>
366.4

> <PUBCHEM_COORDINATE_TYPE>
2
5
10

$$$$
129045720
  -OEChem-11282412143D

 57 61  0     1  0  0  0  0  0999 V2000
   -1.1794    0.1286   -1.6173 Cl  0  0  0  0  0  0  0  0  0  0  0  0
    5.9043    1.4367   -1.1608 O   0  0  0  0  0  0  0  0  0  0  0  0
    7.4287    3.5920   -1.9445 O   0  0  0  0  0  0  0  0  0  0  0  0
    0.7771    0.2305    1.8447 O   0  0  0  0  0  0  0  0  0  0  0  0
   -5.2408    1.8115    0.9141 O   0  0  0  0  0  0  0  0  0  0  0  0
    3.0940   -0.3266    0.4605 N   0  0  0  0  0  0  0  0  0  0  0  0
    3.8124   -2.3678   -0.4925 N   0  0  0  0  0  0  0  0  0  0  0  0
    0.0599   -3.8081   -0.0831 N   0  0  0  0  0  0  0  0  0  0  0  0
    2.3109   -4.2555   -0.8230 N   0  0  0  0  0  0  0  0  0  0  0  0
    4.3976    0.2881    0.3615 C   0  0  2  0  0  0  0  0  0  0  0  0
    4.5019    1.4483    1.3503 C   0  0  0  0  0  0  0  0  0  0  0  0
    5.8071    2.2105    1.1407 C   0  0  0  0  0  0  0  0  0  0  0  0
    5.9741    2.6002   -0.3297 C   0  0  1  0  0  0  0  0  0  0  0  0
    4.6420    0.7761   -1.0636 C   0  0  0  0  0  0  0  0  0  0  0  0
    7.3233    3.2632   -0.5703 C   0  0  0  0  0  0  0  0  0  0  0  0
    2.8208   -1.6178    0.0417 C   0  0  0  0  0  0  0  0  0  0  0  0
    1.5410   -2.1569    0.1633 C   0  0  0  0  0  0  0  0  0  0  0  0
    0.2826   -1.7174    0.6482 C   0  0  0  0  0  0  0  0  0  0  0  0
    1.3694   -3.4610   -0.2846 C   0  0  0  0  0  0  0  0  0  0  0  0
   -0.6105   -2.7548    0.4840 C   0  0  0  0  0  0  0  0  0  0  0  0
   -0.0648   -0.4456    1.2155 C   0  0  0  0  0  0  0  0  0  0  0  0
    3.5002   -3.6229   -0.8864 C   0  0  0  0  0  0  0  0  0  0  0  0
   -1.4384    0.1569    1.0983 C   0  0  0  0  0  0  0  0  0  0  0  0
   -2.0144    0.4450   -0.1391 C   0  0  0  0  0  0  0  0  0  0  0  0
   -2.1403    0.4243    2.2736 C   0  0  0  0  0  0  0  0  0  0  0  0
   -3.2924    1.0007   -0.2009 C   0  0  0  0  0  0  0  0  0  0  0  0
   -3.4182    0.9803    2.2118 C   0  0  0  0  0  0  0  0  0  0  0  0
   -3.9942    1.2685    0.9744 C   0  0  0  0  0  0  0  0  0  0  0  0
   -6.1306    1.2806   -0.0047 C   0  0  0  0  0  0  0  0  0  0  0  0
   -6.2548   -0.1026   -0.1359 C   0  0  0  0  0  0  0  0  0  0  0  0
   -6.9013    2.1288   -0.8000 C   0  0  0  0  0  0  0  0  0  0  0  0
   -7.1500   -0.6376   -1.0624 C   0  0  0  0  0  0  0  0  0  0  0  0
   -7.7964    1.5936   -1.7265 C   0  0  0  0  0  0  0  0  0  0  0  0
   -7.9208    0.2105   -1.8574 C   0  0  0  0  0  0  0  0  0  0  0  0
    5.1827   -0.4304    0.6343 H   0  0  0  0  0  0  0  0  0  0  0  0
    4.4436    1.0790    2.3812 H   0  0  0  0  0  0  0  0  0  0  0  0
    3.6574    2.1375    1.2173 H   0  0  0  0  0  0  0  0  0  0  0  0
    5.8283    3.0999    1.7802 H   0  0  0  0  0  0  0  0  0  0  0  0
    6.6383    1.5632    1.4482 H   0  0  0  0  0  0  0  0  0  0  0  0
    5.1779    3.2884   -0.6424 H   0  0  0  0  0  0  0  0  0  0  0  0
    4.6618   -0.0631   -1.7665 H   0  0  0  0  0  0  0  0  0  0  0  0
    3.8494    1.4554   -1.4026 H   0  0  0  0  0  0  0  0  0  0  0  0
    2.3240    0.2494    0.7740 H   0  0  0  0  0  0  0  0  0  0  0  0
    8.1442    2.5798   -0.3285 H   0  0  0  0  0  0  0  0  0  0  0  0
    7.4263    4.1771    0.0229 H   0  0  0  0  0  0  0  0  0  0  0  0
    8.2960    4.0124   -2.0730 H   0  0  0  0  0  0  0  0  0  0  0  0
   -1.6621   -2.8470    0.7194 H   0  0  0  0  0  0  0  0  0  0  0  0
   -0.3484   -4.7027   -0.3159 H   0  0  0  0  0  0  0  0  0  0  0  0
    4.3168   -4.1974   -1.3103 H   0  0  0  0  0  0  0  0  0  0  0  0
   -1.7050    0.2018    3.2444 H   0  0  0  0  0  0  0  0  0  0  0  0
   -3.7212    1.2428   -1.1708 H   0  0  0  0  0  0  0  0  0  0  0  0
   -3.9606    1.1858    3.1306 H   0  0  0  0  0  0  0  0  0  0  0  0
   -5.6827   -0.7862    0.4857 H   0  0  0  0  0  0  0  0  0  0  0  0
   -6.8079    3.2068   -0.7024 H   0  0  0  0  0  0  0  0  0  0  0  0
   -7.2505   -1.7145   -1.1613 H   0  0  0  0  0  0  0  0  0  0  0  0
   -8.3966    2.2539   -2.3457 H   0  0  0  0  0  0  0  0  0  0  0  0
   -8.6186   -0.2062   -2.5780 H   0  0  0  0  0  0  0  0  0  0  0  0
  1 24  1  0  0  0  0
  2 13  1  0  0  0  0
  2 14  1  0  0  0  0
  3 15  1  0  0  0  0
  3 46  1  0  0  0  0
  4 21  2  0  0  0  0
  5 28  1  0  0  0  0
  5 29  1  0  0  0  0
  6 10  1  0  0  0  0
  6 16  1  0  0  0  0
  6 43  1  0  0  0  0
  7 16  2  0  0  0  0
  7 22  1  0  0  0  0
  8 19  1  0  0  0  0
  8 20  1  0  0  0  0
  8 48  1  0  0  0  0
  9 19  1  0  0  0  0
  9 22  2  0  0  0  0
 10 11  1  0  0  0  0
 10 14  1  0  0  0  0
 10 35  1  0  0  0  0
 11 12  1  0  0  0  0
 11 36  1  0  0  0  0
 11 37  1  0  0  0  0
 12 13  1  0  0  0  0
 12 38  1  0  0  0  0
 12 39  1  0  0  0  0
 13 15  1  0  0  0  0
 13 40  1  0  0  0  0
 14 41  1  0  0  0  0
 14 42  1  0  0  0  0
 15 44  1  0  0  0  0
 15 45  1  0  0  0  0
 16 17  1  0  0  0  0
 17 18  1  0  0  0  0
 17 19  2  0  0  0  0
 18 20  2  0  0  0  0
 18 21  1  0  0  0  0
 20 47  1  0  0  0  0
 21 23  1  0  0  0  0
 22 49  1  0  0  0  0
 23 24  2  0  0  0  0
 23 25  1  0  0  0  0
 24 26  1  0  0  0  0
 25 27  2  0  0  0  0
 25 50  1  0  0  0  0
 26 28  2  0  0  0  0
 26 51  1  0  0  0  0
 27 28  1  0  0  0  0
 27 52  1  0  0  0  0
 29 30  2  0  0  0  0
 29 31  1  0  0  0  0
 30 32  1  0  0  0  0
 30 53  1  0  0  0  0
 31 33  2  0  0  0  0
 31 54  1  0  0  0  0
 32 34  2  0  0  0  0
 32 55  1  0  0  0  0
 33 34  1  0  0  0  0
 33 56  1  0  0  0  0
 34 57  1  0  0  0  0
M  END
> <PUBCHEM_COMPOUND_CID>
129045720

> <PUBCHEM_CONFORMER_RMSD>
1

> <PUBCHEM_CONFORMER_DIVERSEORDER>
1
149
90
128
125
46
153
151
118
148
123
69
3
87
162
52
37
132
140
51
60
83
93
145
42
135
147
131
67
122
78
113
121
8
110
71
143
155
15
57
134
82
103
152
86
115
40
158
85
12
163
91
141
38
101
17
30
48
156
84
159
124
33
154
96
50
92
160
139
138
81
22
36
127
108
133
112
9
80
157
64
47
26
2
58
107
39
72
27
98
136
65
126
94
75
70
120
76
99
150
114
88
130
66
53
95
111
106
43
68
161
117
61
19
25
45
144
32
56
97
137
142
74
54
18
73
35
29
79
11
20
44
7
24
77
23
100
119
41
5
59
16
129
146
21
28
63
6
62
13
14
102
31
116
4
105
49
89
34
104
10
55
109

> <PUBCHEM_MMFF94_PARTIAL_CHARGES>
44
1 -0.18
10 0.37
13 0.28
14 0.28
15 0.28
16 0.41
18 -0.09
19 0.11
2 -0.56
20 -0.3
21 0.57
22 0.47
23 0.09
24 0.18
25 -0.15
26 -0.15
27 -0.15
28 0.08
29 0.08
3 -0.68
30 -0.15
31 -0.15
32 -0.15
33 -0.15
34 -0.15
4 -0.57
43 0.4
46 0.4
47 0.15
48 0.27
49 0.15
5 -0.17
50 0.15
51 0.15
52 0.15
53 0.15
54 0.15
55 0.15
56 0.15
57 0.15
6 -0.87
7 -0.62
8 0.03
9 -0.57

> <PUBCHEM_EFFECTIVE_ROTOR_COUNT>
8.2

> <PUBCHEM_PHARMACOPHORE_FEATURES>
15
1 2 acceptor
1 3 acceptor
1 3 donor
1 4 acceptor
1 5 acceptor
1 6 donor
1 8 cation
1 8 donor
3 6 7 16 cation
3 7 9 22 cation
5 8 17 18 19 20 rings
6 2 10 11 12 13 14 rings
6 23 24 25 26 27 28 rings
6 29 30 31 32 33 34 rings
6 7 9 16 17 19 22 rings

> <PUBCHEM_HEAVY_ATOM_COUNT>
34

> <PUBCHEM_ATOM_DEF_STEREO_COUNT>
2

> <PUBCHEM_ATOM_UDEF_STEREO_COUNT>
0

> <PUBCHEM_BOND_DEF_STEREO_COUNT>
0

> <PUBCHEM_BOND_UDEF_STEREO_COUNT>
0

> <PUBCHEM_ISOTOPIC_ATOM_COUNT>
0

> <PUBCHEM_COMPONENT_COUNT>
1

> <PUBCHEM_CACTVS_TAUTO_COUNT>
17

> <PUBCHEM_CONFORMER_ID>
07B114D800000001

> <PUBCHEM_MMFF94_ENERGY>
102.7787

> <PUBCHEM_FEATURE_SELFOVERLAP>
76.362

> <PUBCHEM_SHAPE_FINGERPRINT>
10190206 1 17703518782414458457
10673678 19 18410292510290843702
10692045 39 8142083195861256249
11135609 187 18412539946407479617
11443803 9 18338782525163398810
11693224 71 17701802479625035512
11828042 200 17910383215537996087
12107183 9 11169917169505355425
12124843 1 17775018881625356628
1361 2 18410011031056238253
13673619 4 12103848955676337641
13911987 19 18341621442168693304
14040221 97 18263943187797035059
14117953 113 18410858755539742044
14294032 229 18195814187539522934
14415360 78 18267013054496284140
14767858 380 18131628989492493761
14931854 50 17917999390532531440
15082195 135 18343858909881785339
15198563 99 17551794046415652254
15324884 4 17680183769739749251
15350500 55 17748828553105601340
16120349 189 18261961864023770420
16994733 274 18113889481838628673
19319366 153 18130210576374990199
23522609 53 17559693750093396849
23559900 14 16010176175879720171
24771293 8 17749388174480480837
249057 25 17845375440378558443
27425 322 17822009865480558562
3103668 31 17910670196367296087
4073 2 18408040690020732571
44880568 143 18189607243238976165
45270241 37 18268429037010217605
45377200 153 15410036526698038861
5372103 7 17967808358298050445
5470011 282 18340760456877947661
6058803 2 17557157094556733259
6327066 14 18335986475721126772
9849439 229 18271231833809616368

> <PUBCHEM_SHAPE_MULTIPOLES>
658.17
21.39
4.46
1.81
14.55
3.67
0.29
-23.14
-11.52
-9.11
-1.51
1
-0.88
-0.7

> <PUBCHEM_SHAPE_SELFOVERLAP>
1441.808

> <PUBCHEM_SHAPE_VOLUME>
354.8

> <PUBCHEM_COORDINATE_TYPE>
2
5
10

$$$$
24779724
  -OEChem-11282412143D

 39 43  0     0  0  0  0  0  0999 V2000
   -0.6283    1.1115    0.3182 S   0  0  0  0  0  0  0  0  0  0  0  0
    1.2757   -0.9047    0.0786 N   0  0  0  0  0  0  0  0  0  0  0  0
    2.3323   -0.0550    0.0439 N   0  0  0  0  0  0  0  0  0  0  0  0
    6.1059    1.8599   -0.1091 N   0  0  0  0  0  0  0  0  0  0  0  0
    0.0724   -2.7418    0.0803 N   0  0  0  0  0  0  0  0  0  0  0  0
   -0.7782   -1.6611    0.1970 N   0  0  0  0  0  0  0  0  0  0  0  0
    6.9153    0.7942   -0.2335 N   0  0  0  0  0  0  0  0  0  0  0  0
   -6.5014    0.2765    0.7633 N   0  0  0  0  0  0  0  0  0  0  0  0
    3.4849   -0.6531   -0.0631 C   0  0  0  0  0  0  0  0  0  0  0  0
    4.7215    0.1703   -0.1062 C   0  0  0  0  0  0  0  0  0  0  0  0
    1.3023   -2.2783    0.0100 C   0  0  0  0  0  0  0  0  0  0  0  0
   -0.0427   -0.5724    0.1931 C   0  0  0  0  0  0  0  0  0  0  0  0
    3.6641   -2.1376   -0.1660 C   0  0  0  0  0  0  0  0  0  0  0  0
    2.5613   -2.8964   -0.1227 C   0  0  0  0  0  0  0  0  0  0  0  0
   -4.5584    0.6245   -0.6189 C   0  0  0  0  0  0  0  0  0  0  0  0
   -2.3872    0.8613    0.4400 C   0  0  0  0  0  0  0  0  0  0  0  0
    4.7824    1.5404   -0.0289 C   0  0  0  0  0  0  0  0  0  0  0  0
   -5.1741    0.4662    0.6403 C   0  0  0  0  0  0  0  0  0  0  0  0
   -3.1700    0.8211   -0.7103 C   0  0  0  0  0  0  0  0  0  0  0  0
    6.0639   -0.2350   -0.2313 C   0  0  0  0  0  0  0  0  0  0  0  0
   -2.9870    0.7060    1.6835 C   0  0  0  0  0  0  0  0  0  0  0  0
   -4.3674    0.5109    1.7740 C   0  0  0  0  0  0  0  0  0  0  0  0
   -5.3701    0.5802   -1.7604 C   0  0  0  0  0  0  0  0  0  0  0  0
    6.6705    3.1878   -0.0720 C   0  0  0  0  0  0  0  0  0  0  0  0
   -6.7381    0.3849   -1.6368 C   0  0  0  0  0  0  0  0  0  0  0  0
   -7.2494    0.2397   -0.3632 C   0  0  0  0  0  0  0  0  0  0  0  0
    4.6436   -2.5837   -0.2681 H   0  0  0  0  0  0  0  0  0  0  0  0
    2.6260   -3.9764   -0.1898 H   0  0  0  0  0  0  0  0  0  0  0  0
    4.0164    2.2973    0.0738 H   0  0  0  0  0  0  0  0  0  0  0  0
   -2.7078    0.9419   -1.6888 H   0  0  0  0  0  0  0  0  0  0  0  0
    6.4753   -1.2299   -0.3217 H   0  0  0  0  0  0  0  0  0  0  0  0
   -2.3998    0.7330    2.5982 H   0  0  0  0  0  0  0  0  0  0  0  0
   -4.8132    0.3917    2.7599 H   0  0  0  0  0  0  0  0  0  0  0  0
   -4.9405    0.6975   -2.7526 H   0  0  0  0  0  0  0  0  0  0  0  0
    5.8686    3.9229    0.0319 H   0  0  0  0  0  0  0  0  0  0  0  0
    7.2135    3.3568   -1.0051 H   0  0  0  0  0  0  0  0  0  0  0  0
    7.3471    3.2499    0.7840 H   0  0  0  0  0  0  0  0  0  0  0  0
   -7.3804    0.3478   -2.5088 H   0  0  0  0  0  0  0  0  0  0  0  0
   -8.3115    0.0844   -0.2048 H   0  0  0  0  0  0  0  0  0  0  0  0
  1 12  1  0  0  0  0
  1 16  1  0  0  0  0
  2  3  1  0  0  0  0
  2 11  1  0  0  0  0
  2 12  1  0  0  0  0
  3  9  2  0  0  0  0
  4  7  1  0  0  0  0
  4 17  1  0  0  0  0
  4 24  1  0  0  0  0
  5  6  1  0  0  0  0
  5 11  2  0  0  0  0
  6 12  2  0  0  0  0
  7 20  2  0  0  0  0
  8 18  1  0  0  0  0
  8 26  2  0  0  0  0
  9 10  1  0  0  0  0
  9 13  1  0  0  0  0
 10 17  2  0  0  0  0
 10 20  1  0  0  0  0
 11 14  1  0  0  0  0
 13 14  2  0  0  0  0
 13 27  1  0  0  0  0
 14 28  1  0  0  0  0
 15 18  2  0  0  0  0
 15 19  1  0  0  0  0
 15 23  1  0  0  0  0
 16 19  2  0  0  0  0
 16 21  1  0  0  0  0
 17 29  1  0  0  0  0
 18 22  1  0  0  0  0
 19 30  1  0  0  0  0
 20 31  1  0  0  0  0
 21 22  2  0  0  0  0
 21 32  1  0  0  0  0
 22 33  1  0  0  0  0
 23 25  2  0  0  0  0
 23 34  1  0  0  0  0
 24 35  1  0  0  0  0
 24 36  1  0  0  0  0
 24 37  1  0  0  0  0
 25 26  1  0  0  0  0
 25 38  1  0  0  0  0
 26 39  1  0  0  0  0
M  END
> <PUBCHEM_COMPOUND_CID>
24779724

> <PUBCHEM_CONFORMER_RMSD>
0.6

> <PUBCHEM_CONFORMER_DIVERSEORDER>
1
90
133
175
95
46
186
142
88
151
134
184
173
150
180
114
172
174
71
63
179
139
148
57
141
185
72
189
96
94
97
163
58
48
40
124
154
147
177
77
170
152
190
178
166
91
164
149
53
171
24
56
136
157
153
125
23
135
111
183
176
67
131
169
7
117
68
155
70
55
61
8
181
54
168
110
182
47
188
144
126
64
112
62
137
74
80
187
99
115
167
146
13
145
143
132
130
92
165
39
116
113
52
51
69
156
89
84
98
93
158
26
73
79
14
123
81
140
82
161
122
25
60
59
83
138
108
78
20
128
36
109
19
33
159
30
50
86
49
85
107
35
21
87
160
10
22
162
42
41
32
43
34
29
118
120
3
45
9
75
76
4
106
2
127
129
66
44
31
121
119
5
65
6
15
100
12
27
16
101
28
11
102
103
105
104
18
37
17
38

> <PUBCHEM_MMFF94_PARTIAL_CHARGES>
35
1 -0.16
10 -0.09
11 0.14
12 0.24
13 -0.14
14 -0.11
16 0.1
17 -0.3
18 0.31
19 -0.15
2 0.51
20 0.14
21 -0.15
22 -0.15
23 -0.15
24 0.26
25 -0.15
26 0.16
27 0.15
28 0.15
29 0.15
3 -0.65
30 0.15
31 0.15
32 0.15
33 0.15
34 0.15
38 0.15
39 0.15
4 0.31
5 -0.34
6 -0.34
7 -0.71
8 -0.62
9 0.52

> <PUBCHEM_EFFECTIVE_ROTOR_COUNT>
3

> <PUBCHEM_PHARMACOPHORE_FEATURES>
10
1 3 acceptor
1 7 acceptor
1 8 acceptor
3 2 5 11 cation
3 2 6 12 cation
5 2 5 6 11 12 rings
5 4 7 10 17 20 rings
6 15 16 18 19 21 22 rings
6 2 3 9 11 13 14 rings
6 8 15 18 23 25 26 rings

> <PUBCHEM_HEAVY_ATOM_COUNT>
26

> <PUBCHEM_ATOM_DEF_STEREO_COUNT>
0

> <PUBCHEM_ATOM_UDEF_STEREO_COUNT>
0

> <PUBCHEM_BOND_DEF_STEREO_COUNT>
0

> <PUBCHEM_BOND_UDEF_STEREO_COUNT>
0

> <PUBCHEM_ISOTOPIC_ATOM_COUNT>
0

> <PUBCHEM_COMPONENT_COUNT>
1

> <PUBCHEM_CACTVS_TAUTO_COUNT>
1

> <PUBCHEM_CONFORMER_ID>
017A1BCC00000001

> <PUBCHEM_MMFF94_ENERGY>
60.1091

> <PUBCHEM_FEATURE_SELFOVERLAP>
53.395

> <PUBCHEM_SHAPE_FINGERPRINT>
10 15 17748826345650257268
10299344 5 17346599664460422701
10411042 1 17906171747202278662
10595046 47 18200876171680296945
10835480 77 18188203200964889429
11101153 10 18341334405330802601
11135609 187 18413102870786490401
11273773 42 17988933296366065248
12107183 9 10953460713170124005
12144603 126 17988927756997352921
12236239 1 17846217709841547753
12592606 108 8574709092388066545
12730499 353 18408606942265959930
12838862 33 18339067286028168432
12925494 130 17910952762787874728
13631057 29 18200306758197377295
13673619 4 13039184814507573155
14767858 380 18060418019022961241
14840074 17 18130783448008184005
14856354 85 16558746841461762133
14931854 50 18060145336425086864
15183329 4 16200436874872207812
15575132 122 18059573530312203381
15685185 35 18125438859477960396
18335252 98 18409733984950880883
19319366 153 18341605997614171510
19489759 90 16008754593787072329
20157964 124 18409166593694839622
20511986 3 16081076070462692931
20567600 254 18113900459706082266
21033648 29 17313391080654930975
21049683 118 18190440831749790866
21049683 271 18343580781254927449
21150785 3 18060415833243147861
21236236 1 18339926033946193283
21315759 40 17275107185229512546
21521721 280 18411421708948867107
22224240 67 18261110793998327547
2297311 6 14908179746899074401
23081809 10 17703228416961030923
23522609 53 17488764297513064905
23559900 14 18410007780415102009
23845131 108 18260548970060275882
2838139 119 18411983542464096184
312425 54 13334742375012830508
335352 9 18412550891244880710
34797466 226 18130793330110636671
4325135 7 18201998811406268653
5207 217 18411136948258975099
5265222 85 14692277508485229204
5283384 27 18113612408765410356
6327066 14 18337673148265184268
8863177 126 12031487926494174653
9961470 85 17910951675881859800
999808 66 11527951179460142333

> <PUBCHEM_SHAPE_MULTIPOLES>
504.05
20.24
2.55
1.18
1.21
0.86
0.05
-11.57
-4.1
-5.72
-0.05
2.64
-0.28
-0.07

> <PUBCHEM_SHAPE_SELFOVERLAP>
1119.378

> <PUBCHEM_SHAPE_VOLUME>
270.9

> <PUBCHEM_COORDINATE_TYPE>
2
5
10

$$$$
57347523
  -OEChem-11282412143D

 59 62  0     0  0  0  0  0  0999 V2000
   -2.2051    1.6261    0.0659 O   0  0  0  0  0  0  0  0  0  0  0  0
   -8.6400    1.6846    2.3856 O   0  0  0  0  0  0  0  0  0  0  0  0
   -9.2528   -0.2006    1.2761 O   0  0  0  0  0  0  0  0  0  0  0  0
    7.3614    2.5612   -0.1364 O   0  0  0  0  0  0  0  0  0  0  0  0
    7.7099   -2.0842    0.9033 O   0  0  0  0  0  0  0  0  0  0  0  0
   -3.7577   -0.4421   -2.0024 N   0  0  0  0  0  0  0  0  0  0  0  0
    0.1492    1.6467    0.2579 N   0  0  0  0  0  0  0  0  0  0  0  0
   -5.4260   -0.6094   -0.5462 C   0  0  0  0  0  0  0  0  0  0  0  0
   -4.2288   -1.0224    0.0890 C   0  0  0  0  0  0  0  0  0  0  0  0
   -3.2130   -0.9085   -0.8343 C   0  0  0  0  0  0  0  0  0  0  0  0
   -5.1054   -0.2558   -1.8382 C   0  0  0  0  0  0  0  0  0  0  0  0
   -6.7720   -0.5647    0.0614 C   0  0  0  0  0  0  0  0  0  0  0  0
   -0.8152   -0.3046   -0.4499 C   0  0  0  0  0  0  0  0  0  0  0  0
    0.6293   -0.5038   -0.4006 C   0  0  0  0  0  0  0  0  0  0  0  0
   -1.7628   -1.1738   -0.8061 C   0  0  0  0  0  0  0  0  0  0  0  0
    1.1660    0.7113    0.0350 C   0  0  0  0  0  0  0  0  0  0  0  0
   -4.0957   -1.4911    1.4846 C   0  0  0  0  0  0  0  0  0  0  0  0
   -7.0127    0.6515    0.9732 C   0  0  0  0  0  0  0  0  0  0  0  0
   -1.1095    1.1027   -0.0172 C   0  0  0  0  0  0  0  0  0  0  0  0
   -5.9452    0.2457   -2.9433 C   0  0  0  0  0  0  0  0  0  0  0  0
    2.5234    0.9021    0.2034 C   0  0  0  0  0  0  0  0  0  0  0  0
    1.4522   -1.5775   -0.6837 C   0  0  0  0  0  0  0  0  0  0  0  0
    3.3612   -0.1780   -0.0807 C   0  0  0  0  0  0  0  0  0  0  0  0
    2.8310   -1.4059   -0.5200 C   0  0  0  0  0  0  0  0  0  0  0  0
    4.7930   -0.0353    0.0785 C   0  0  0  0  0  0  0  0  0  0  0  0
   -8.4136    0.6524    1.5359 C   0  0  0  0  0  0  0  0  0  0  0  0
    5.5708   -1.1422    0.4182 C   0  0  0  0  0  0  0  0  0  0  0  0
    5.3947    1.2092   -0.1079 C   0  0  0  0  0  0  0  0  0  0  0  0
    6.7742    1.3469    0.0455 C   0  0  0  0  0  0  0  0  0  0  0  0
    6.9503   -1.0044    0.5718 C   0  0  0  0  0  0  0  0  0  0  0  0
    7.5519    0.2401    0.3854 C   0  0  0  0  0  0  0  0  0  0  0  0
    6.5068    3.6502   -0.4825 C   0  0  0  0  0  0  0  0  0  0  0  0
    7.0304   -3.3265    1.0788 C   0  0  0  0  0  0  0  0  0  0  0  0
   -6.9431   -1.4855    0.6346 H   0  0  0  0  0  0  0  0  0  0  0  0
   -7.5357   -0.5761   -0.7276 H   0  0  0  0  0  0  0  0  0  0  0  0
   -3.2453   -0.2615   -2.8554 H   0  0  0  0  0  0  0  0  0  0  0  0
   -1.4807   -2.1796   -1.1090 H   0  0  0  0  0  0  0  0  0  0  0  0
   -4.8970   -2.1898    1.7448 H   0  0  0  0  0  0  0  0  0  0  0  0
   -3.1460   -2.0107    1.6489 H   0  0  0  0  0  0  0  0  0  0  0  0
   -4.1380   -0.6441    2.1766 H   0  0  0  0  0  0  0  0  0  0  0  0
   -6.8706    1.5777    0.4050 H   0  0  0  0  0  0  0  0  0  0  0  0
   -6.3069    0.6408    1.8107 H   0  0  0  0  0  0  0  0  0  0  0  0
   -6.5579    1.0895   -2.6095 H   0  0  0  0  0  0  0  0  0  0  0  0
   -5.3427    0.5880   -3.7911 H   0  0  0  0  0  0  0  0  0  0  0  0
   -6.6144   -0.5430   -3.3019 H   0  0  0  0  0  0  0  0  0  0  0  0
    0.3194    2.5929    0.5777 H   0  0  0  0  0  0  0  0  0  0  0  0
    2.8797    1.8564    0.5753 H   0  0  0  0  0  0  0  0  0  0  0  0
    1.0550   -2.5250   -1.0306 H   0  0  0  0  0  0  0  0  0  0  0  0
    3.4638   -2.2497   -0.7840 H   0  0  0  0  0  0  0  0  0  0  0  0
    5.0779   -2.0892    0.6012 H   0  0  0  0  0  0  0  0  0  0  0  0
    4.7771    2.0456   -0.4122 H   0  0  0  0  0  0  0  0  0  0  0  0
    8.6271    0.3474    0.5050 H   0  0  0  0  0  0  0  0  0  0  0  0
   -9.5496    1.6642    2.7525 H   0  0  0  0  0  0  0  0  0  0  0  0
    6.0309    3.4950   -1.4568 H   0  0  0  0  0  0  0  0  0  0  0  0
    5.7800    3.8615    0.3093 H   0  0  0  0  0  0  0  0  0  0  0  0
    7.1400    4.5386   -0.5769 H   0  0  0  0  0  0  0  0  0  0  0  0
    6.3335   -3.2888    1.9230 H   0  0  0  0  0  0  0  0  0  0  0  0
    6.5485   -3.6584    0.1528 H   0  0  0  0  0  0  0  0  0  0  0  0
    7.7893   -4.0758    1.3275 H   0  0  0  0  0  0  0  0  0  0  0  0
  1 19  2  0  0  0  0
  2 26  1  0  0  0  0
  2 53  1  0  0  0  0
  3 26  2  0  0  0  0
  4 29  1  0  0  0  0
  4 32  1  0  0  0  0
  5 30  1  0  0  0  0
  5 33  1  0  0  0  0
  6 10  1  0  0  0  0
  6 11  1  0  0  0  0
  6 36  1  0  0  0  0
  7 16  1  0  0  0  0
  7 19  1  0  0  0  0
  7 46  1  0  0  0  0
  8  9  1  0  0  0  0
  8 11  2  0  0  0  0
  8 12  1  0  0  0  0
  9 10  2  0  0  0  0
  9 17  1  0  0  0  0
 10 15  1  0  0  0  0
 11 20  1  0  0  0  0
 12 18  1  0  0  0  0
 12 34  1  0  0  0  0
 12 35  1  0  0  0  0
 13 14  1  0  0  0  0
 13 15  2  3  0  0  0
 13 19  1  0  0  0  0
 14 16  2  0  0  0  0
 14 22  1  0  0  0  0
 15 37  1  0  0  0  0
 16 21  1  0  0  0  0
 17 38  1  0  0  0  0
 17 39  1  0  0  0  0
 17 40  1  0  0  0  0
 18 26  1  0  0  0  0
 18 41  1  0  0  0  0
 18 42  1  0  0  0  0
 20 43  1  0  0  0  0
 20 44  1  0  0  0  0
 20 45  1  0  0  0  0
 21 23  2  0  0  0  0
 21 47  1  0  0  0  0
 22 24  2  0  0  0  0
 22 48  1  0  0  0  0
 23 24  1  0  0  0  0
 23 25  1  0  0  0  0
 24 49  1  0  0  0  0
 25 27  2  0  0  0  0
 25 28  1  0  0  0  0
 27 30  1  0  0  0  0
 27 50  1  0  0  0  0
 28 29  2  0  0  0  0
 28 51  1  0  0  0  0
 29 31  1  0  0  0  0
 30 31  2  0  0  0  0
 31 52  1  0  0  0  0
 32 54  1  0  0  0  0
 32 55  1  0  0  0  0
 32 56  1  0  0  0  0
 33 57  1  0  0  0  0
 33 58  1  0  0  0  0
 33 59  1  0  0  0  0
M  END
> <PUBCHEM_COMPOUND_CID>
57347523

> <PUBCHEM_CONFORMER_RMSD>
1

> <PUBCHEM_CONFORMER_DIVERSEORDER>
6
8
16
12
2
18
20
13
21
1
15
7
5
17
3
9
19
14
4
10
11

> <PUBCHEM_MMFF94_PARTIAL_CHARGES>
41
1 -0.57
10 -0.2
11 -0.33
12 0.18
13 -0.01
14 0.03
15 -0.11
16 0.12
17 0.18
18 0.06
19 0.62
2 -0.65
20 0.18
21 -0.15
22 -0.15
24 -0.15
26 0.66
27 -0.15
28 -0.15
29 0.08
3 -0.57
30 0.08
31 -0.15
32 0.28
33 0.28
36 0.27
37 0.15
4 -0.36
46 0.37
47 0.15
48 0.15
49 0.15
5 -0.36
50 0.15
51 0.15
52 0.15
53 0.5
6 0.03
7 -0.55
8 -0.18
9 -0.18

> <PUBCHEM_EFFECTIVE_ROTOR_COUNT>
7.2

> <PUBCHEM_PHARMACOPHORE_FEATURES>
13
1 1 acceptor
1 2 acceptor
1 3 acceptor
1 4 acceptor
1 5 acceptor
1 6 cation
1 6 donor
1 7 donor
3 2 3 26 anion
5 6 8 9 10 11 rings
5 7 13 14 16 19 rings
6 14 16 21 22 23 24 rings
6 25 27 28 29 30 31 rings

> <PUBCHEM_HEAVY_ATOM_COUNT>
33

> <PUBCHEM_ATOM_DEF_STEREO_COUNT>
0

> <PUBCHEM_ATOM_UDEF_STEREO_COUNT>
0

> <PUBCHEM_BOND_DEF_STEREO_COUNT>
0

> <PUBCHEM_BOND_UDEF_STEREO_COUNT>
1

> <PUBCHEM_ISOTOPIC_ATOM_COUNT>
0

> <PUBCHEM_COMPONENT_COUNT>
1

> <PUBCHEM_CACTVS_TAUTO_COUNT>
19

> <PUBCHEM_CONFORMER_ID>
036B0DC300000006

> <PUBCHEM_MMFF94_ENERGY>
113.1555

> <PUBCHEM_FEATURE_SELFOVERLAP>
66.119

> <PUBCHEM_SHAPE_FINGERPRINT>
10299344 5 18272931639213489135
10835480 77 18114733923995823644
10906281 52 18202289129541612278
11135609 127 8934700195203467906
11135926 11 18339634564886650855
11181472 205 17988374684361092584
12082328 90 15502369007261202559
12539765 74 17846788429195720622
13533116 47 18409721869100937162
14118638 360 15213288713000492841
14251764 18 18202563995317599127
14444916 359 17603591798919082539
14849402 71 18340488992626874569
15276724 80 18411696608252370884
15419008 91 17168969197427939244
15461852 350 15697995263459014037
1577012 14 17846215587442050926
20105231 36 17312823757971622546
20157964 124 18334851750125677444
21130935 74 18336828688289979602
21267235 1 18411135802310017070
21521721 280 18336263535281312714
21792961 116 17895465935092807991
22149856 69 17489588927213189818
23081809 10 17917424358951806670
23522609 53 18059030474394414704
23559900 14 18265321975220283048
24771293 8 17559940186547714144
3044373 193 16660649583450553772
3178227 256 18334859424277641682
3383291 50 15357984482049829649
34797466 226 16370728145635967374
397830 11 17459754907443105136
4073 2 17968657250426537506
4340502 62 17240755221195345850
5028188 123 16916787443948898068
54039377 194 12108086491915010473
6691757 9 16271931545792544863

> <PUBCHEM_SHAPE_MULTIPOLES>
639.82
28.65
2.48
1.6
11.67
0.64
0.44
3.35
-10.96
-6.99
-0.47
5.06
0.06
-2.39

> <PUBCHEM_SHAPE_SELFOVERLAP>
1402.185

> <PUBCHEM_SHAPE_VOLUME>
350.5

> <PUBCHEM_COORDINATE_TYPE>
2
5
10

$$$$
5328127
  -OEChem-11282412143D

 53 55  0     0  0  0  0  0  0999 V2000
    1.4265    3.1158   -0.0003 O   0  0  0  0  0  0  0  0  0  0  0  0
   -3.7895   -1.9129   -2.3867 O   0  0  0  0  0  0  0  0  0  0  0  0
   -3.7893   -1.9143    2.3864 O   0  0  0  0  0  0  0  0  0  0  0  0
   -0.8685    3.3871    0.0007 N   0  0  0  0  0  0  0  0  0  0  0  0
   -0.0158    1.2637    0.0009 N   0  0  0  0  0  0  0  0  0  0  0  0
    2.1936    0.4593    0.0004 N   0  0  0  0  0  0  0  0  0  0  0  0
    4.3883   -0.2791    0.0001 N   0  0  0  0  0  0  0  0  0  0  0  0
    4.9262   -2.6266   -0.0003 N   0  0  0  0  0  0  0  0  0  0  0  0
    6.6192   -1.0090   -0.0005 N   0  0  0  0  0  0  0  0  0  0  0  0
   -0.8617    4.8387    0.0005 C   0  0  0  0  0  0  0  0  0  0  0  0
   -2.3062    5.3521    0.0008 C   0  0  0  0  0  0  0  0  0  0  0  0
   -0.1340    5.3364    1.2536 C   0  0  0  0  0  0  0  0  0  0  0  0
   -0.1383    5.3418   -1.2541 C   0  0  0  0  0  0  0  0  0  0  0  0
    0.3000    2.6252    0.0005 C   0  0  0  0  0  0  0  0  0  0  0  0
    0.3523   -1.1043    0.0000 C   0  0  0  0  0  0  0  0  0  0  0  0
    0.8758    0.1658    0.0004 C   0  0  0  0  0  0  0  0  0  0  0  0
   -1.0685   -1.3819    0.0001 C   0  0  0  0  0  0  0  0  0  0  0  0
    1.2582   -2.1503   -0.0003 C   0  0  0  0  0  0  0  0  0  0  0  0
    2.6336   -1.8754   -0.0003 C   0  0  0  0  0  0  0  0  0  0  0  0
    3.0777   -0.5478    0.0000 C   0  0  0  0  0  0  0  0  0  0  0  0
   -1.7521   -1.5158    1.2078 C   0  0  0  0  0  0  0  0  0  0  0  0
   -1.7522   -1.5151   -1.2080 C   0  0  0  0  0  0  0  0  0  0  0  0
   -3.1212   -1.7827   -1.2081 C   0  0  0  0  0  0  0  0  0  0  0  0
   -3.1211   -1.7833    1.2079 C   0  0  0  0  0  0  0  0  0  0  0  0
   -3.8056   -1.9168   -0.0002 C   0  0  0  0  0  0  0  0  0  0  0  0
    3.6055   -2.8730   -0.0004 C   0  0  0  0  0  0  0  0  0  0  0  0
    5.2426   -1.3239   -0.0004 C   0  0  0  0  0  0  0  0  0  0  0  0
   -5.1878   -2.1863   -2.3135 C   0  0  0  0  0  0  0  0  0  0  0  0
   -5.1877   -2.1875    2.3131 C   0  0  0  0  0  0  0  0  0  0  0  0
   -2.8511    4.9971    0.8834 H   0  0  0  0  0  0  0  0  0  0  0  0
   -2.3422    6.4471    0.0015 H   0  0  0  0  0  0  0  0  0  0  0  0
   -2.8517    4.9978   -0.8817 H   0  0  0  0  0  0  0  0  0  0  0  0
    0.9339    5.0997    1.2572 H   0  0  0  0  0  0  0  0  0  0  0  0
   -0.5693    4.9017    2.1611 H   0  0  0  0  0  0  0  0  0  0  0  0
   -0.2130    6.4267    1.3396 H   0  0  0  0  0  0  0  0  0  0  0  0
   -0.5784    4.9118   -2.1616 H   0  0  0  0  0  0  0  0  0  0  0  0
   -0.2151    6.4327   -1.3344 H   0  0  0  0  0  0  0  0  0  0  0  0
    0.9289    5.1019   -1.2630 H   0  0  0  0  0  0  0  0  0  0  0  0
   -1.7614    2.9033    0.0009 H   0  0  0  0  0  0  0  0  0  0  0  0
   -1.0079    1.0468    0.0011 H   0  0  0  0  0  0  0  0  0  0  0  0
    0.9119   -3.1822   -0.0005 H   0  0  0  0  0  0  0  0  0  0  0  0
   -1.2280   -1.4130    2.1557 H   0  0  0  0  0  0  0  0  0  0  0  0
   -1.2281   -1.4117   -2.1557 H   0  0  0  0  0  0  0  0  0  0  0  0
   -4.8653   -2.1239   -0.0002 H   0  0  0  0  0  0  0  0  0  0  0  0
    3.3389   -3.9257   -0.0006 H   0  0  0  0  0  0  0  0  0  0  0  0
   -5.3866   -3.1537   -1.8396 H   0  0  0  0  0  0  0  0  0  0  0  0
   -5.5549   -2.2577   -3.3428 H   0  0  0  0  0  0  0  0  0  0  0  0
   -5.7363   -1.3653   -1.8391 H   0  0  0  0  0  0  0  0  0  0  0  0
   -5.3866   -3.1547    1.8387 H   0  0  0  0  0  0  0  0  0  0  0  0
   -5.7360   -1.3662    1.8392 H   0  0  0  0  0  0  0  0  0  0  0  0
   -5.5548   -2.2595    3.3423 H   0  0  0  0  0  0  0  0  0  0  0  0
    6.9073   -0.0404    0.0003 H   0  0  0  0  0  0  0  0  0  0  0  0
    7.2998   -1.7561    0.0000 H   0  0  0  0  0  0  0  0  0  0  0  0
  1 14  2  0  0  0  0
  2 23  1  0  0  0  0
  2 28  1  0  0  0  0
  3 24  1  0  0  0  0
  3 29  1  0  0  0  0
  4 10  1  0  0  0  0
  4 14  1  0  0  0  0
  4 39  1  0  0  0  0
  5 14  1  0  0  0  0
  5 16  1  0  0  0  0
  5 40  1  0  0  0  0
  6 16  1  0  0  0  0
  6 20  2  0  0  0  0
  7 20  1  0  0  0  0
  7 27  2  0  0  0  0
  8 26  2  0  0  0  0
  8 27  1  0  0  0  0
  9 27  1  0  0  0  0
  9 52  1  0  0  0  0
  9 53  1  0  0  0  0
 10 11  1  0  0  0  0
 10 12  1  0  0  0  0
 10 13  1  0  0  0  0
 11 30  1  0  0  0  0
 11 31  1  0  0  0  0
 11 32  1  0  0  0  0
 12 33  1  0  0  0  0
 12 34  1  0  0  0  0
 12 35  1  0  0  0  0
 13 36  1  0  0  0  0
 13 37  1  0  0  0  0
 13 38  1  0  0  0  0
 15 16  2  0  0  0  0
 15 17  1  0  0  0  0
 15 18  1  0  0  0  0
 17 21  2  0  0  0  0
 17 22  1  0  0  0  0
 18 19  2  0  0  0  0
 18 41  1  0  0  0  0
 19 20  1  0  0  0  0
 19 26  1  0  0  0  0
 21 24  1  0  0  0  0
 21 42  1  0  0  0  0
 22 23  2  0  0  0  0
 22 43  1  0  0  0  0
 23 25  1  0  0  0  0
 24 25  2  0  0  0  0
 25 44  1  0  0  0  0
 26 45  1  0  0  0  0
 28 46  1  0  0  0  0
 28 47  1  0  0  0  0
 28 48  1  0  0  0  0
 29 49  1  0  0  0  0
 29 50  1  0  0  0  0
 29 51  1  0  0  0  0
M  END
> <PUBCHEM_COMPOUND_CID>
5328127

> <PUBCHEM_CONFORMER_RMSD>
0.8

> <PUBCHEM_CONFORMER_DIVERSEORDER>
1
9
10
5
2
6
3
7
8
4

> <PUBCHEM_MMFF94_PARTIAL_CHARGES>
32
1 -0.57
10 0.3
14 0.69
16 0.43
18 -0.15
2 -0.36
20 0.62
21 -0.15
22 -0.15
23 0.08
24 0.08
25 -0.15
26 0.16
27 0.72
28 0.28
29 0.28
3 -0.36
39 0.37
4 -0.73
40 0.37
41 0.15
42 0.15
43 0.15
44 0.15
45 0.15
5 -0.55
52 0.4
53 0.4
6 -0.62
7 -0.62
8 -0.62
9 -0.9

> <PUBCHEM_EFFECTIVE_ROTOR_COUNT>
7

> <PUBCHEM_PHARMACOPHORE_FEATURES>
12
1 1 acceptor
1 2 acceptor
1 3 acceptor
1 4 donor
1 5 donor
1 8 acceptor
1 9 donor
4 10 11 12 13 hydrophobe
4 7 8 9 27 cation
6 17 21 22 23 24 25 rings
6 6 15 16 18 19 20 rings
6 7 8 19 20 26 27 rings

> <PUBCHEM_HEAVY_ATOM_COUNT>
29

> <PUBCHEM_ATOM_DEF_STEREO_COUNT>
0

> <PUBCHEM_ATOM_UDEF_STEREO_COUNT>
0

> <PUBCHEM_BOND_DEF_STEREO_COUNT>
0

> <PUBCHEM_BOND_UDEF_STEREO_COUNT>
0

> <PUBCHEM_ISOTOPIC_ATOM_COUNT>
0

> <PUBCHEM_COMPONENT_COUNT>
1

> <PUBCHEM_CACTVS_TAUTO_COUNT>
24

> <PUBCHEM_CONFORMER_ID>
00514CFF00000001

> <PUBCHEM_MMFF94_ENERGY>
114.2964

> <PUBCHEM_FEATURE_SELFOVERLAP>
60.987

> <PUBCHEM_SHAPE_FINGERPRINT>
10074138 170 17973988567107260096
11115154 58 18267279025120059095
11445158 3 18125170570166822023
11578080 2 17416374659131412043
11991303 11 17757566152735492884
12160290 23 17910982169621009736
12166972 35 17987787657332901055
12236239 1 17632015346479960991
12293681 4 18262805043328821435
12342043 65 17461174407141506123
12553582 1 18411426141524551510
12741549 16 17821727277511290629
12788726 201 18120639254592425747
13134695 92 18337952414752836199
13140716 1 18410022026104256368
13590594 115 18411979161708230505
13690498 29 18054812610773273502
13692114 37 17622697857217143613
138480 1 15240040534857010208
13911987 19 18261396702094139838
14028597 1 17531805745059770530
14363568 33 18046640176159509348
14556957 393 18335719234397710028
14790565 3 17404019224238921964
15021287 119 18343308098208036275
15081414 286 18194403518436769464
15629462 23 18264482889525590547
15842332 3 17556872635026592103
15927050 60 17546442280793759086
16087824 20 18268424630464306597
16988056 13 18122315099587734357
17138139 8 17477719582884957629
17980427 23 17203051897246280627
1813 80 18200330882400788614
18785283 64 17903085773399788891
19301679 30 18264499403200506258
19427546 62 17545043697924298104
20028762 73 16613061276226278742
20101258 96 18411985745492194760
20739085 24 18269571592072344186
21041028 32 18336276698812677874
21049683 118 17544165217981985000
21307412 95 16908915735748840710
21641784 216 18261691311233212116
23558518 356 18048030775328111494
23559900 14 18123455348853789367
23845131 108 17469610607077779697
23929065 36 18052226576408680928
24771293 8 17986108737689953976
283562 15 18336257947624221826
4015057 19 18263639744390334747
513202 73 18198350550448705142
5171179 24 18058711594462821896
59025328 239 17986081176114669655
5969126 39 18341602695205839830
6677587 24 16106337534630962909
79837 15 17761780563609499864
9658208 31 17766826244402785464

> <PUBCHEM_SHAPE_MULTIPOLES>
549.31
10.06
7.71
1.63
7.18
19.72
0
-13.89
0
-3.66
0
-3.73
-1.18
0

> <PUBCHEM_SHAPE_SELFOVERLAP>
1186.126

> <PUBCHEM_SHAPE_VOLUME>
301.2

> <PUBCHEM_COORDINATE_TYPE>
2
5
10

$$$$
51038269
  -OEChem-11282412143D

 66 70  0     0  0  0  0  0  0999 V2000
    5.5964    2.7870   -1.5010 F   0  0  0  0  0  0  0  0  0  0  0  0
    6.8951    2.4408    0.2081 F   0  0  0  0  0  0  0  0  0  0  0  0
    6.7298    0.9379   -1.3467 F   0  0  0  0  0  0  0  0  0  0  0  0
   -0.1591    0.1813    1.6321 O   0  0  0  0  0  0  0  0  0  0  0  0
    6.9720   -1.1644    0.3325 N   0  0  0  0  0  0  0  0  0  0  0  0
    8.3945   -3.5083   -0.5849 N   0  0  0  0  0  0  0  0  0  0  0  0
    1.1728    1.5010    0.2131 N   0  0  0  0  0  0  0  0  0  0  0  0
  -10.6350   -2.3548    0.0057 N   0  0  0  0  0  0  0  0  0  0  0  0
   -9.5955   -0.1773    0.1745 N   0  0  0  0  0  0  0  0  0  0  0  0
  -10.3053   -3.6455   -0.1825 N   0  0  0  0  0  0  0  0  0  0  0  0
    8.4364   -1.2427    0.4014 C   0  0  0  0  0  0  0  0  0  0  0  0
    6.3821   -2.5045    0.4392 C   0  0  0  0  0  0  0  0  0  0  0  0
    8.9852   -2.1684   -0.6896 C   0  0  0  0  0  0  0  0  0  0  0  0
    6.9300   -3.4297   -0.6527 C   0  0  0  0  0  0  0  0  0  0  0  0
    6.4498   -0.2828    1.3747 C   0  0  0  0  0  0  0  0  0  0  0  0
    5.0605    0.2015    1.0550 C   0  0  0  0  0  0  0  0  0  0  0  0
    8.9160   -4.3886   -1.6285 C   0  0  0  0  0  0  0  0  0  0  0  0
    4.8500    1.2040    0.1084 C   0  0  0  0  0  0  0  0  0  0  0  0
    3.9750   -0.3678    1.7211 C   0  0  0  0  0  0  0  0  0  0  0  0
    3.5542    1.6371   -0.1726 C   0  0  0  0  0  0  0  0  0  0  0  0
    2.6793    0.0652    1.4403 C   0  0  0  0  0  0  0  0  0  0  0  0
    2.4688    1.0677    0.4933 C   0  0  0  0  0  0  0  0  0  0  0  0
    5.9966    1.8284   -0.6170 C   0  0  0  0  0  0  0  0  0  0  0  0
   -0.0285    1.0508    0.7772 C   0  0  0  0  0  0  0  0  0  0  0  0
   -1.2562    1.7327    0.2901 C   0  0  0  0  0  0  0  0  0  0  0  0
   -2.4803    1.0641    0.3083 C   0  0  0  0  0  0  0  0  0  0  0  0
   -1.1839    3.0420   -0.1856 C   0  0  0  0  0  0  0  0  0  0  0  0
   -3.6319    1.7046   -0.1487 C   0  0  0  0  0  0  0  0  0  0  0  0
   -3.5594    3.0139   -0.6242 C   0  0  0  0  0  0  0  0  0  0  0  0
   -2.3354    3.6826   -0.6426 C   0  0  0  0  0  0  0  0  0  0  0  0
   -4.7727    3.7324   -1.1215 C   0  0  0  0  0  0  0  0  0  0  0  0
   -4.8760    0.9976   -0.1202 C   0  0  0  0  0  0  0  0  0  0  0  0
   -8.4484   -2.3093   -0.1926 C   0  0  0  0  0  0  0  0  0  0  0  0
   -7.1638   -0.3020   -0.0675 C   0  0  0  0  0  0  0  0  0  0  0  0
   -9.5636   -1.5112    0.0088 C   0  0  0  0  0  0  0  0  0  0  0  0
   -7.1946   -1.6868   -0.2335 C   0  0  0  0  0  0  0  0  0  0  0  0
   -5.9203    0.4043   -0.0962 C   0  0  0  0  0  0  0  0  0  0  0  0
   -8.3609    0.3791    0.1272 C   0  0  0  0  0  0  0  0  0  0  0  0
   -8.9739   -3.6120   -0.3026 C   0  0  0  0  0  0  0  0  0  0  0  0
    8.7628   -1.5980    1.3882 H   0  0  0  0  0  0  0  0  0  0  0  0
    8.8699   -0.2461    0.2524 H   0  0  0  0  0  0  0  0  0  0  0  0
    6.5797   -2.9455    1.4258 H   0  0  0  0  0  0  0  0  0  0  0  0
    5.2949   -2.4616    0.3118 H   0  0  0  0  0  0  0  0  0  0  0  0
   10.0737   -2.2330   -0.5715 H   0  0  0  0  0  0  0  0  0  0  0  0
    8.7891   -1.7301   -1.6777 H   0  0  0  0  0  0  0  0  0  0  0  0
    6.6021   -3.0720   -1.6383 H   0  0  0  0  0  0  0  0  0  0  0  0
    6.4988   -4.4277   -0.5076 H   0  0  0  0  0  0  0  0  0  0  0  0
    7.0950    0.5933    1.5118 H   0  0  0  0  0  0  0  0  0  0  0  0
    6.4678   -0.7784    2.3559 H   0  0  0  0  0  0  0  0  0  0  0  0
    8.6759   -4.0269   -2.6349 H   0  0  0  0  0  0  0  0  0  0  0  0
    8.5070   -5.3991   -1.5187 H   0  0  0  0  0  0  0  0  0  0  0  0
   10.0047   -4.4797   -1.5457 H   0  0  0  0  0  0  0  0  0  0  0  0
    4.1239   -1.1501    2.4608 H   0  0  0  0  0  0  0  0  0  0  0  0
    3.3808    2.4182   -0.9089 H   0  0  0  0  0  0  0  0  0  0  0  0
    1.8930   -0.4245    1.9970 H   0  0  0  0  0  0  0  0  0  0  0  0
    1.1235    2.2047   -0.5182 H   0  0  0  0  0  0  0  0  0  0  0  0
   -2.5395    0.0406    0.6736 H   0  0  0  0  0  0  0  0  0  0  0  0
   -0.2610    3.6140   -0.1840 H   0  0  0  0  0  0  0  0  0  0  0  0
   -2.2622    4.7057   -1.0021 H   0  0  0  0  0  0  0  0  0  0  0  0
   -4.5364    4.7486   -1.4561 H   0  0  0  0  0  0  0  0  0  0  0  0
   -5.5208    3.8195   -0.3265 H   0  0  0  0  0  0  0  0  0  0  0  0
   -5.2092    3.2041   -1.9757 H   0  0  0  0  0  0  0  0  0  0  0  0
   -6.2883   -2.2641   -0.3882 H   0  0  0  0  0  0  0  0  0  0  0  0
   -8.3658    1.4593    0.2594 H   0  0  0  0  0  0  0  0  0  0  0  0
   -8.4440   -4.5399   -0.4652 H   0  0  0  0  0  0  0  0  0  0  0  0
  -11.6124   -2.1203    0.1254 H   0  0  0  0  0  0  0  0  0  0  0  0
  1 23  1  0  0  0  0
  2 23  1  0  0  0  0
  3 23  1  0  0  0  0
  4 24  2  0  0  0  0
  5 11  1  0  0  0  0
  5 12  1  0  0  0  0
  5 15  1  0  0  0  0
  6 13  1  0  0  0  0
  6 14  1  0  0  0  0
  6 17  1  0  0  0  0
  7 22  1  0  0  0  0
  7 24  1  0  0  0  0
  7 56  1  0  0  0  0
  8 10  1  0  0  0  0
  8 35  1  0  0  0  0
  8 66  1  0  0  0  0
  9 35  1  0  0  0  0
  9 38  2  0  0  0  0
 10 39  2  0  0  0  0
 11 13  1  0  0  0  0
 11 40  1  0  0  0  0
 11 41  1  0  0  0  0
 12 14  1  0  0  0  0
 12 42  1  0  0  0  0
 12 43  1  0  0  0  0
 13 44  1  0  0  0  0
 13 45  1  0  0  0  0
 14 46  1  0  0  0  0
 14 47  1  0  0  0  0
 15 16  1  0  0  0  0
 15 48  1  0  0  0  0
 15 49  1  0  0  0  0
 16 18  2  0  0  0  0
 16 19  1  0  0  0  0
 17 50  1  0  0  0  0
 17 51  1  0  0  0  0
 17 52  1  0  0  0  0
 18 20  1  0  0  0  0
 18 23  1  0  0  0  0
 19 21  2  0  0  0  0
 19 53  1  0  0  0  0
 20 22  2  0  0  0  0
 20 54  1  0  0  0  0
 21 22  1  0  0  0  0
 21 55  1  0  0  0  0
 24 25  1  0  0  0  0
 25 26  2  0  0  0  0
 25 27  1  0  0  0  0
 26 28  1  0  0  0  0
 26 57  1  0  0  0  0
 27 30  2  0  0  0  0
 27 58  1  0  0  0  0
 28 29  2  0  0  0  0
 28 32  1  0  0  0  0
 29 30  1  0  0  0  0
 29 31  1  0  0  0  0
 30 59  1  0  0  0  0
 31 60  1  0  0  0  0
 31 61  1  0  0  0  0
 31 62  1  0  0  0  0
 32 37  3  0  0  0  0
 33 35  2  0  0  0  0
 33 36  1  0  0  0  0
 33 39  1  0  0  0  0
 34 36  2  0  0  0  0
 34 37  1  0  0  0  0
 34 38  1  0  0  0  0
 36 63  1  0  0  0  0
 38 64  1  0  0  0  0
 39 65  1  0  0  0  0
M  END
> <PUBCHEM_COMPOUND_CID>
51038269

> <PUBCHEM_CONFORMER_RMSD>
1

> <PUBCHEM_CONFORMER_DIVERSEORDER>
3
2
25
1
47
42
6
40
33
5
44
18
50
11
49
7
45
51
46
48
41
15
38
52
31
39
22
34
17
20
14
10
19
27
24
4
43
16
12
30
21
9
54
26
13
35
53
8
36
37
29
23
28
32

> <PUBCHEM_MMFF94_PARTIAL_CHARGES>
49
1 -0.34
10 -0.71
11 0.27
12 0.27
13 0.27
14 0.27
15 0.41
16 -0.14
17 0.27
18 -0.14
19 -0.15
2 -0.34
20 -0.15
21 -0.15
22 0.12
23 1.16
24 0.54
25 0.09
26 -0.15
27 -0.15
28 0.07
29 -0.14
3 -0.34
30 -0.15
31 0.14
32 -0.07
34 0.07
35 0.11
36 -0.15
37 -0.07
38 0.16
39 0.14
4 -0.57
5 -0.81
53 0.15
54 0.15
55 0.15
56 0.37
57 0.15
58 0.15
59 0.15
6 -0.81
63 0.15
64 0.15
65 0.15
66 0.27
7 -0.55
8 0.3
9 -0.57

> <PUBCHEM_EFFECTIVE_ROTOR_COUNT>
7.2

> <PUBCHEM_PHARMACOPHORE_FEATURES>
12
1 10 acceptor
1 4 acceptor
1 5 cation
1 6 cation
1 7 donor
1 8 donor
1 9 acceptor
5 8 10 33 35 39 rings
6 16 18 19 20 21 22 rings
6 25 26 27 28 29 30 rings
6 5 6 11 12 13 14 rings
6 9 33 34 35 36 38 rings

> <PUBCHEM_HEAVY_ATOM_COUNT>
39

> <PUBCHEM_ATOM_DEF_STEREO_COUNT>
0

> <PUBCHEM_ATOM_UDEF_STEREO_COUNT>
0

> <PUBCHEM_BOND_DEF_STEREO_COUNT>
0

> <PUBCHEM_BOND_UDEF_STEREO_COUNT>
0

> <PUBCHEM_ISOTOPIC_ATOM_COUNT>
0

> <PUBCHEM_COMPONENT_COUNT>
1

> <PUBCHEM_CACTVS_TAUTO_COUNT>
15

> <PUBCHEM_CONFORMER_ID>
030AC83D00000003

> <PUBCHEM_MMFF94_ENERGY>
92.8117

> <PUBCHEM_FEATURE_SELFOVERLAP>
61.011

> <PUBCHEM_SHAPE_FINGERPRINT>
10029044 110 12035716601945848375
10258705 36 18271808973476153814
10280341 67 9511460018325979139
11061554 47 9943807777229217875
11411753 3 18268408205750231193
11456790 92 16272206379604824723
11497681 19 18335136484254948669
11578821 258 8502366733339139815
11607047 74 18338517577638625948
12013929 94 18342739594903514462
12539745 222 17988645173729546857
13248334 5 17830453148800813285
13627175 4 18059848480864041055
14965480 1 18130795504009024998
15064986 266 17749398023209833353
15145347 29 18339658797197363291
15152005 77 18272362106188956031
15198563 99 16515671227339512997
15264996 44 17385733521551837836
15455199 99 18122341556814234467
15538507 75 17917156018818803627
15773216 30 18266178525128909168
16067689 302 18337104674150850908
16067689 68 18202010889767013105
16991971 28 18260545671767426793
2026 5 18199749146577166022
21130935 74 18342454795052931208
212700 22 18411972577534447987
21362857 166 18335426768209311518
21792965 169 18041294226139646405
23569917 315 18271249322695646318
23576562 1 18040720234337640748
25025965 108 17843957286531378151
25242607 90 18339067294654234331
255183 451 18333168370994335652
2851757 41 18412549803853828519
306946 40 12829493666809863982
3430473 40 18341896282666155835
3711267 37 8069756225938367519
45377200 153 18410292502070694475
4760202 170 12107794008262068358
4760202 70 18115030834879891469
54039377 194 18334856148003396469
5937810 71 12324510997598175463
636775 72 9007052475078053299
636775 8 18408885118528029951
9831232 110 18267867177736052214

> <PUBCHEM_SHAPE_MULTIPOLES>
745.03
40.22
5.2
1.16
35.49
2.54
0.09
50.5
-6.57
0.72
-2.46
-2.24
0.01
2.29

> <PUBCHEM_SHAPE_SELFOVERLAP>
1632.954

> <PUBCHEM_SHAPE_VOLUME>
404.8

> <PUBCHEM_COORDINATE_TYPE>
2
5
10

$$$$
5329098
  -OEChem-11282412143D

 32 34  0     0  0  0  0  0  0999 V2000
   -0.6242    1.9331   -0.4505 O   0  0  0  0  0  0  0  0  0  0  0  0
   -2.4938   -0.2565    1.1350 N   0  0  0  0  0  0  0  0  0  0  0  0
    1.7314    1.8167   -0.3147 N   0  0  0  0  0  0  0  0  0  0  0  0
    0.5771   -0.1310    0.0211 C   0  0  0  0  0  0  0  0  0  0  0  0
   -1.8784   -0.6116    0.0001 C   0  0  0  0  0  0  0  0  0  0  0  0
    2.0016   -0.4199    0.1472 C   0  0  0  0  0  0  0  0  0  0  0  0
   -2.6863   -0.5723   -1.0550 C   0  0  0  0  0  0  0  0  0  0  0  0
    2.6566    0.7966   -0.0657 C   0  0  0  0  0  0  0  0  0  0  0  0
   -0.4547   -0.9689    0.1398 C   0  0  0  0  0  0  0  0  0  0  0  0
   -3.7924    0.0363    0.8095 C   0  0  0  0  0  0  0  0  0  0  0  0
    0.4202    1.3316   -0.2796 C   0  0  0  0  0  0  0  0  0  0  0  0
   -3.9401   -0.1517   -0.5471 C   0  0  0  0  0  0  0  0  0  0  0  0
    2.7195   -1.5708    0.4121 C   0  0  0  0  0  0  0  0  0  0  0  0
    4.0321    0.9131   -0.0238 C   0  0  0  0  0  0  0  0  0  0  0  0
   -2.3853   -0.8900   -2.4654 C   0  0  0  0  0  0  0  0  0  0  0  0
   -4.7618    0.4660    1.8340 C   0  0  0  0  0  0  0  0  0  0  0  0
    4.1144   -1.4754    0.4594 C   0  0  0  0  0  0  0  0  0  0  0  0
    4.7642   -0.2454    0.2436 C   0  0  0  0  0  0  0  0  0  0  0  0
   -0.2692   -2.0184    0.3577 H   0  0  0  0  0  0  0  0  0  0  0  0
   -2.0946   -0.2073    2.0640 H   0  0  0  0  0  0  0  0  0  0  0  0
   -4.8532   -0.0017   -1.1074 H   0  0  0  0  0  0  0  0  0  0  0  0
    1.9939    2.7785   -0.4954 H   0  0  0  0  0  0  0  0  0  0  0  0
    2.2299   -2.5237    0.5799 H   0  0  0  0  0  0  0  0  0  0  0  0
    4.5312    1.8608   -0.1902 H   0  0  0  0  0  0  0  0  0  0  0  0
   -1.6333   -0.2007   -2.8634 H   0  0  0  0  0  0  0  0  0  0  0  0
   -2.0007   -1.9109   -2.5588 H   0  0  0  0  0  0  0  0  0  0  0  0
   -3.2790   -0.8105   -3.0931 H   0  0  0  0  0  0  0  0  0  0  0  0
   -4.8817   -0.3054    2.6014 H   0  0  0  0  0  0  0  0  0  0  0  0
   -4.4275    1.3879    2.3209 H   0  0  0  0  0  0  0  0  0  0  0  0
   -5.7452    0.6567    1.3923 H   0  0  0  0  0  0  0  0  0  0  0  0
    4.7068   -2.3631    0.6656 H   0  0  0  0  0  0  0  0  0  0  0  0
    5.8492   -0.1993    0.2860 H   0  0  0  0  0  0  0  0  0  0  0  0
  1 11  2  0  0  0  0
  2  5  1  0  0  0  0
  2 10  1  0  0  0  0
  2 20  1  0  0  0  0
  3  8  1  0  0  0  0
  3 11  1  0  0  0  0
  3 22  1  0  0  0  0
  4  6  1  0  0  0  0
  4  9  2  0  0  0  0
  4 11  1  0  0  0  0
  5  7  2  0  0  0  0
  5  9  1  0  0  0  0
  6  8  1  0  0  0  0
  6 13  2  0  0  0  0
  7 12  1  0  0  0  0
  7 15  1  0  0  0  0
  8 14  2  0  0  0  0
  9 19  1  0  0  0  0
 10 12  2  0  0  0  0
 10 16  1  0  0  0  0
 12 21  1  0  0  0  0
 13 17  1  0  0  0  0
 13 23  1  0  0  0  0
 14 18  1  0  0  0  0
 14 24  1  0  0  0  0
 15 25  1  0  0  0  0
 15 26  1  0  0  0  0
 15 27  1  0  0  0  0
 16 28  1  0  0  0  0
 16 29  1  0  0  0  0
 16 30  1  0  0  0  0
 17 18  2  0  0  0  0
 17 31  1  0  0  0  0
 18 32  1  0  0  0  0
M  END
> <PUBCHEM_COMPOUND_CID>
5329098

> <PUBCHEM_CONFORMER_RMSD>
0.6

> <PUBCHEM_CONFORMER_DIVERSEORDER>
1
4
2
3

> <PUBCHEM_MMFF94_PARTIAL_CHARGES>
26
1 -0.57
10 -0.33
11 0.62
12 -0.15
13 -0.15
14 -0.15
15 0.18
16 0.18
17 -0.15
18 -0.15
19 0.15
2 0.03
20 0.27
21 0.15
22 0.37
23 0.15
24 0.15
3 -0.55
31 0.15
32 0.15
4 -0.01
5 -0.2
6 0.03
7 -0.18
8 0.12
9 -0.11

> <PUBCHEM_EFFECTIVE_ROTOR_COUNT>
1.2

> <PUBCHEM_PHARMACOPHORE_FEATURES>
7
1 1 acceptor
1 2 cation
1 2 donor
1 3 donor
5 2 5 7 10 12 rings
5 3 4 6 8 11 rings
6 6 8 13 14 17 18 rings

> <PUBCHEM_HEAVY_ATOM_COUNT>
18

> <PUBCHEM_ATOM_DEF_STEREO_COUNT>
0

> <PUBCHEM_ATOM_UDEF_STEREO_COUNT>
0

> <PUBCHEM_BOND_DEF_STEREO_COUNT>
1

> <PUBCHEM_BOND_UDEF_STEREO_COUNT>
0

> <PUBCHEM_ISOTOPIC_ATOM_COUNT>
0

> <PUBCHEM_COMPONENT_COUNT>
1

> <PUBCHEM_CACTVS_TAUTO_COUNT>
2

> <PUBCHEM_CONFORMER_ID>
005150CA00000001

> <PUBCHEM_MMFF94_ENERGY>
54.0917

> <PUBCHEM_FEATURE_SELFOVERLAP>
35.609

> <PUBCHEM_SHAPE_FINGERPRINT>
10062212 137 18060414746442673447
11471102 20 18333726940396703414
11578080 2 17700377443371782521
11796584 16 15913340078630238510
12186901 62 15647043837991582303
12236239 1 18131631201506204359
12500047 106 16128656349132353623
12553582 1 18409162204174875078
12670546 56 17846491543348986360
13140716 1 18190742132047521762
13296908 3 17748820821736589834
13675066 3 18187083961850449153
13760787 5 18408321103449099716
14004511 7 18202566185218189619
14386348 63 17603304855836436971
15375462 189 18413669110668626872
15653759 3 16732980942397398135
16945 1 18335132142063871108
17844478 74 17313101964709731421
1813 80 18337403655561128780
18186145 218 17167855353314648474
18785283 64 17315370364435444100
19489759 90 15626220204489664907
200 152 18341039766357716820
20645477 70 18260536797748223694
21065201 7 15985105223332738638
21267235 1 18334584499643074082
212916 134 16343423908410276419
22094290 60 15068620487428615263
2297311 6 15574721265851440243
23175994 123 17894631444131959285
23184049 59 18410860957723418875
23402539 116 18411971456294211078
23493267 7 16371271247696245949
23557571 272 15051739720067672307
23559900 14 16153974743609316498
26918003 58 17822007605831979266
2838139 119 18267296540129501941
34797466 226 15410336705730198016
5104073 3 18339077202563869050
573450 72 17418369199136509903
6049 1 16950558908871847917
633830 44 18270127949572992404
7495541 125 16226055521769581012
77492 1 18060416954034530647
9862522 239 17986675866314484961

> <PUBCHEM_SHAPE_MULTIPOLES>
354.6
9.39
1.53
1.37
0.63
0.25
-0.32
-0.45
2.66
0.73
-0.27
-1.85
-0.25
-1.42

> <PUBCHEM_SHAPE_SELFOVERLAP>
788.695

> <PUBCHEM_SHAPE_VOLUME>
192.5

> <PUBCHEM_COORDINATE_TYPE>
2
5
10

$$$$
135390910
  -OEChem-11282412143D

 69 74  0     1  0  0  0  0  0999 V2000
   -3.0152   -4.5420    0.9547 Cl  0  0  0  0  0  0  0  0  0  0  0  0
    0.6862    2.3377   -0.5566 N   0  0  0  0  0  0  0  0  0  0  0  0
   -1.0395    3.9779    1.0912 N   0  0  0  0  0  0  0  0  0  0  0  0
    2.2771   -2.6901   -0.5654 N   0  0  0  0  0  0  0  0  0  0  0  0
    0.0976   -2.1673    0.1181 N   0  0  0  0  0  0  0  0  0  0  0  0
    0.7835   -4.4566   -0.1918 N   0  0  0  0  0  0  0  0  0  0  0  0
   -3.1743   -0.1316    2.0591 N   0  0  0  0  0  0  0  0  0  0  0  0
    6.2692    0.2203   -0.3286 C   0  0  0  0  0  0  0  0  0  0  0  0
    6.8885   -0.2320    0.9730 C   0  0  0  0  0  0  0  0  0  0  0  0
    6.7500    1.2305    0.6866 C   0  0  0  0  0  0  0  0  0  0  0  0
    4.7907    0.0323   -0.5734 C   0  0  0  0  0  0  0  0  0  0  0  0
    1.1853    2.9682    0.6729 C   0  0  0  0  0  0  0  0  0  0  0  0
   -0.3857    3.1476   -1.1509 C   0  0  0  0  0  0  0  0  0  0  0  0
    0.0419    3.1774    1.6796 C   0  0  1  0  0  0  0  0  0  0  0  0
   -1.5304    3.3568   -0.1456 C   0  0  2  0  0  0  0  0  0  0  0  0
    3.9961    1.1262   -0.9163 C   0  0  0  0  0  0  0  0  0  0  0  0
    1.7730    2.1334   -1.5127 C   0  0  0  0  0  0  0  0  0  0  0  0
    2.6307    0.9528   -1.1426 C   0  0  0  0  0  0  0  0  0  0  0  0
    4.2200   -1.2351   -0.4570 C   0  0  0  0  0  0  0  0  0  0  0  0
    2.8546   -1.4086   -0.6833 C   0  0  0  0  0  0  0  0  0  0  0  0
    2.0600   -0.3147   -1.0260 C   0  0  0  0  0  0  0  0  0  0  0  0
    0.5530    3.8796    2.9367 C   0  0  0  0  0  0  0  0  0  0  0  0
   -2.6208    4.2415   -0.7478 C   0  0  0  0  0  0  0  0  0  0  0  0
    0.9901   -3.1259   -0.1951 C   0  0  0  0  0  0  0  0  0  0  0  0
   -1.1245   -2.6198    0.4680 C   0  0  0  0  0  0  0  0  0  0  0  0
   -2.0644   -1.5831    0.7989 C   0  0  0  0  0  0  0  0  0  0  0  0
   -2.9778   -0.8780   -0.0340 C   0  0  0  0  0  0  0  0  0  0  0  0
   -3.6615    0.0265    0.7813 C   0  0  0  0  0  0  0  0  0  0  0  0
   -1.4638   -3.9566    0.5110 C   0  0  0  0  0  0  0  0  0  0  0  0
   -0.4596   -4.8388    0.1676 C   0  0  0  0  0  0  0  0  0  0  0  0
   -2.2090   -1.1020    2.0798 C   0  0  0  0  0  0  0  0  0  0  0  0
   -3.2893   -0.9227   -1.4075 C   0  0  0  0  0  0  0  0  0  0  0  0
   -4.6450    0.8922    0.2896 C   0  0  0  0  0  0  0  0  0  0  0  0
   -4.9370    0.8301   -1.0759 C   0  0  0  0  0  0  0  0  0  0  0  0
   -4.2708   -0.0625   -1.9132 C   0  0  0  0  0  0  0  0  0  0  0  0
   -5.9789    1.7362   -1.6443 C   0  0  0  0  0  0  0  0  0  0  0  0
    6.8971    0.1072   -1.2102 H   0  0  0  0  0  0  0  0  0  0  0  0
    7.8820   -0.6624    0.9337 H   0  0  0  0  0  0  0  0  0  0  0  0
    6.2535   -0.6511    1.7442 H   0  0  0  0  0  0  0  0  0  0  0  0
    6.0227    1.7853    1.2670 H   0  0  0  0  0  0  0  0  0  0  0  0
    7.6500    1.7870    0.4541 H   0  0  0  0  0  0  0  0  0  0  0  0
    1.6684    3.9295    0.4481 H   0  0  0  0  0  0  0  0  0  0  0  0
    1.9410    2.3295    1.1462 H   0  0  0  0  0  0  0  0  0  0  0  0
   -0.7889    2.6315   -2.0316 H   0  0  0  0  0  0  0  0  0  0  0  0
    0.0051    4.1168   -1.4909 H   0  0  0  0  0  0  0  0  0  0  0  0
   -0.3626    2.2018    1.9813 H   0  0  0  0  0  0  0  0  0  0  0  0
   -1.9781    2.3875    0.1000 H   0  0  0  0  0  0  0  0  0  0  0  0
    4.4431    2.1131   -1.0095 H   0  0  0  0  0  0  0  0  0  0  0  0
    2.3742    3.0440   -1.6370 H   0  0  0  0  0  0  0  0  0  0  0  0
    1.3663    1.9096   -2.5090 H   0  0  0  0  0  0  0  0  0  0  0  0
    4.8401   -2.0887   -0.1925 H   0  0  0  0  0  0  0  0  0  0  0  0
   -0.6896    4.9134    0.8817 H   0  0  0  0  0  0  0  0  0  0  0  0
    1.0054   -0.4276   -1.2570 H   0  0  0  0  0  0  0  0  0  0  0  0
   -0.2539    4.0142    3.6656 H   0  0  0  0  0  0  0  0  0  0  0  0
    1.3386    3.2863    3.4171 H   0  0  0  0  0  0  0  0  0  0  0  0
    0.9701    4.8667    2.7073 H   0  0  0  0  0  0  0  0  0  0  0  0
   -2.2373    5.2334   -1.0122 H   0  0  0  0  0  0  0  0  0  0  0  0
   -3.0284    3.7855   -1.6565 H   0  0  0  0  0  0  0  0  0  0  0  0
   -3.4497    4.3750   -0.0438 H   0  0  0  0  0  0  0  0  0  0  0  0
    2.9371   -3.4566   -0.6569 H   0  0  0  0  0  0  0  0  0  0  0  0
   -0.6189   -5.9127    0.1680 H   0  0  0  0  0  0  0  0  0  0  0  0
   -1.7143   -1.3586    3.0069 H   0  0  0  0  0  0  0  0  0  0  0  0
   -3.4842    0.3942    2.8646 H   0  0  0  0  0  0  0  0  0  0  0  0
   -2.7787   -1.6128   -2.0732 H   0  0  0  0  0  0  0  0  0  0  0  0
   -5.1581    1.5839    0.9501 H   0  0  0  0  0  0  0  0  0  0  0  0
   -4.5069   -0.1034   -2.9740 H   0  0  0  0  0  0  0  0  0  0  0  0
   -6.9575    1.2468   -1.6174 H   0  0  0  0  0  0  0  0  0  0  0  0
   -6.0389    2.6730   -1.0797 H   0  0  0  0  0  0  0  0  0  0  0  0
   -5.7469    2.0031   -2.6810 H   0  0  0  0  0  0  0  0  0  0  0  0
  1 29  1  0  0  0  0
  2 12  1  0  0  0  0
  2 13  1  0  0  0  0
  2 17  1  0  0  0  0
  3 14  1  0  0  0  0
  3 15  1  0  0  0  0
  3 52  1  0  0  0  0
  4 20  1  0  0  0  0
  4 24  1  0  0  0  0
  4 60  1  0  0  0  0
  5 24  1  0  0  0  0
  5 25  2  0  0  0  0
  6 24  2  0  0  0  0
  6 30  1  0  0  0  0
  7 28  1  0  0  0  0
  7 31  1  0  0  0  0
  7 63  1  0  0  0  0
  8  9  1  0  0  0  0
  8 10  1  0  0  0  0
  8 11  1  0  0  0  0
  8 37  1  0  0  0  0
  9 10  1  0  0  0  0
  9 38  1  0  0  0  0
  9 39  1  0  0  0  0
 10 40  1  0  0  0  0
 10 41  1  0  0  0  0
 11 16  1  0  0  0  0
 11 19  2  0  0  0  0
 12 14  1  0  0  0  0
 12 42  1  0  0  0  0
 12 43  1  0  0  0  0
 13 15  1  0  0  0  0
 13 44  1  0  0  0  0
 13 45  1  0  0  0  0
 14 22  1  0  0  0  0
 14 46  1  0  0  0  0
 15 23  1  0  0  0  0
 15 47  1  0  0  0  0
 16 18  2  0  0  0  0
 16 48  1  0  0  0  0
 17 18  1  0  0  0  0
 17 49  1  0  0  0  0
 17 50  1  0  0  0  0
 18 21  1  0  0  0  0
 19 20  1  0  0  0  0
 19 51  1  0  0  0  0
 20 21  2  0  0  0  0
 21 53  1  0  0  0  0
 22 54  1  0  0  0  0
 22 55  1  0  0  0  0
 22 56  1  0  0  0  0
 23 57  1  0  0  0  0
 23 58  1  0  0  0  0
 23 59  1  0  0  0  0
 25 26  1  0  0  0  0
 25 29  1  0  0  0  0
 26 27  1  0  0  0  0
 26 31  2  0  0  0  0
 27 28  2  0  0  0  0
 27 32  1  0  0  0  0
 28 33  1  0  0  0  0
 29 30  2  0  0  0  0
 30 61  1  0  0  0  0
 31 62  1  0  0  0  0
 32 35  2  0  0  0  0
 32 64  1  0  0  0  0
 33 34  2  0  0  0  0
 33 65  1  0  0  0  0
 34 35  1  0  0  0  0
 34 36  1  0  0  0  0
 35 66  1  0  0  0  0
 36 67  1  0  0  0  0
 36 68  1  0  0  0  0
 36 69  1  0  0  0  0
M  END
> <PUBCHEM_COMPOUND_CID>
135390910

> <PUBCHEM_CONFORMER_RMSD>
1.2

> <PUBCHEM_CONFORMER_DIVERSEORDER>
1
69
140
132
25
131
177
37
29
3
92
73
141
52
50
71
115
78
106
42
104
99
152
14
30
182
122
57
98
161
23
154
10
153
192
183
107
190
35
26
194
56
180
169
159
34
184
172
157
117
186
72
135
137
130
118
181
9
84
32
61
31
66
81
155
100
146
193
168
174
65
138
43
102
162
179
143
59
97
170
120
2
79
55
114
151
128
41
185
86
176
80
22
105
195
88
74
142
70
163
75
173
116
129
191
175
96
77
127
156
165
11
16
17
87
147
47
95
103
125
83
144
111
126
112
90
58
121
27
134
53
171
139
124
164
148
48
188
101
60
63
178
82
68
133
49
89
94
85
189
113
21
160
119
167
150
15
149
109
76
18
166
40
145
4
20
123
136
45
46
91
51
93
67
5
13
54
24
19
33
158
7
187
110
36
6
108
8
64
12
44
62
28
38
39

> <PUBCHEM_MMFF94_PARTIAL_CHARGES>
49
1 -0.18
10 -0.2
11 -0.03
12 0.27
13 0.27
14 0.27
15 0.27
16 -0.15
17 0.41
18 -0.14
19 -0.15
2 -0.81
20 0.1
21 -0.15
24 0.72
25 0.36
26 -0.05
28 -0.15
29 0.18
3 -0.9
30 0.16
31 -0.3
32 -0.15
33 -0.15
34 -0.14
35 -0.15
36 0.14
37 0.1
38 0.1
39 0.1
4 -0.6
40 0.1
41 0.1
48 0.15
5 -0.62
51 0.15
52 0.36
53 0.15
6 -0.62
60 0.4
61 0.15
62 0.15
63 0.27
64 0.15
65 0.15
66 0.15
7 0.03
8 -0.07
9 -0.2

> <PUBCHEM_EFFECTIVE_ROTOR_COUNT>
7.8

> <PUBCHEM_PHARMACOPHORE_FEATURES>
13
1 2 cation
1 3 cation
1 3 donor
1 4 donor
1 5 acceptor
1 7 cation
1 7 donor
4 4 5 6 24 cation
5 7 26 27 28 31 rings
6 11 16 18 19 20 21 rings
6 2 3 12 13 14 15 rings
6 27 28 32 33 34 35 rings
6 5 6 24 25 29 30 rings

> <PUBCHEM_HEAVY_ATOM_COUNT>
36

> <PUBCHEM_ATOM_DEF_STEREO_COUNT>
2

> <PUBCHEM_ATOM_UDEF_STEREO_COUNT>
0

> <PUBCHEM_BOND_DEF_STEREO_COUNT>
0

> <PUBCHEM_BOND_UDEF_STEREO_COUNT>
0

> <PUBCHEM_ISOTOPIC_ATOM_COUNT>
0

> <PUBCHEM_COMPONENT_COUNT>
1

> <PUBCHEM_CACTVS_TAUTO_COUNT>
994

> <PUBCHEM_CONFORMER_ID>
0811E6BE00000001

> <PUBCHEM_MMFF94_ENERGY>
89.9866

> <PUBCHEM_FEATURE_SELFOVERLAP>
66.067

> <PUBCHEM_SHAPE_FINGERPRINT>
10675989 125 17903635186006462183
11513181 2 18055637205116518551
12156800 1 17907825488912526241
12608794 3 18269016269754676409
12788726 201 18341327778127290384
13402501 40 18260266334951102829
14394314 77 18272094829815203305
14466204 15 18263645224852935402
14659021 117 18338786905555792837
14725015 67 17975412726555142443
15351339 4 18265884762408032849
16664035 7 17906163302272668758
19311894 1 18336551641693575986
19930381 70 18335711516299520255
20600515 1 18269857435131346388
20764821 26 18191877927152786949
20775438 99 17479423066041521503
21133410 38 18054229822186355241
25265897 201 17910656984767273665
3027735 51 18266186028356679513
354706 35 18122058973317853989
392239 28 18131351891367610856
437795 96 18125991913741907464
4394409 98 18334849498508104204
45266715 3 18054197038769751933
463206 1 18342742927091351989
50150288 127 17056970550557443945
5085150 59 18262222327524681040
5171179 24 17910119010671988726
57527295 17 17982138199302299509
6004065 56 18200866378864633893
6036956 94 18261682548994259868
6287921 2 15248203326942035969
653340 110 18339085874403538664
7226269 152 18408604786260565908

> <PUBCHEM_SHAPE_MULTIPOLES>
712.85
11.94
6.76
1.85
13.98
2.48
-0.82
-2.15
2.12
-4
-1.93
-1.08
-1.5
1.75

> <PUBCHEM_SHAPE_SELFOVERLAP>
1545.726

> <PUBCHEM_SHAPE_VOLUME>
390.6

> <PUBCHEM_COORDINATE_TYPE>
2
5
10

$$$$
49806720
  -OEChem-11282412143D

 70 75  0     0  0  0  0  0  0999 V2000
    9.7817   -0.9829   -0.0244 O   0  0  0  0  0  0  0  0  0  0  0  0
   -3.0693    2.6096   -0.1161 O   0  0  0  0  0  0  0  0  0  0  0  0
    2.8182    0.1709   -0.0548 N   0  0  0  0  0  0  0  0  0  0  0  0
    7.0254   -0.2732   -0.0040 N   0  0  0  0  0  0  0  0  0  0  0  0
   -4.4011   -1.7494    0.0354 N   0  0  0  0  0  0  0  0  0  0  0  0
  -10.3514   -0.9147    0.0398 N   0  0  0  0  0  0  0  0  0  0  0  0
    5.6044   -0.5914   -0.1281 C   0  0  0  0  0  0  0  0  0  0  0  0
    4.9755    0.2447   -1.2446 C   0  0  0  0  0  0  0  0  0  0  0  0
    4.8868   -0.3108    1.1936 C   0  0  0  0  0  0  0  0  0  0  0  0
    3.4745   -0.0220   -1.3556 C   0  0  0  0  0  0  0  0  0  0  0  0
    3.3842   -0.5708    1.0774 C   0  0  0  0  0  0  0  0  0  0  0  0
   -1.8631   -1.4785    0.0148 C   0  0  0  0  0  0  0  0  0  0  0  0
    1.4529    0.4809   -0.0610 C   0  0  0  0  0  0  0  0  0  0  0  0
   -0.8666   -0.3003   -0.0273 C   0  0  0  0  0  0  0  0  0  0  0  0
   -3.2791   -0.9630    0.0043 C   0  0  0  0  0  0  0  0  0  0  0  0
    7.7358   -0.5598   -1.2580 C   0  0  0  0  0  0  0  0  0  0  0  0
    7.6338   -1.0251    1.1024 C   0  0  0  0  0  0  0  0  0  0  0  0
    0.5195   -0.5566   -0.0241 C   0  0  0  0  0  0  0  0  0  0  0  0
   -1.2847    1.0519   -0.0701 C   0  0  0  0  0  0  0  0  0  0  0  0
    1.0237    1.8017   -0.1024 C   0  0  0  0  0  0  0  0  0  0  0  0
   -3.6841    0.3518   -0.0372 C   0  0  0  0  0  0  0  0  0  0  0  0
   -1.6403   -2.2989    1.3047 C   0  0  0  0  0  0  0  0  0  0  0  0
   -1.6515   -2.3807   -1.2213 C   0  0  0  0  0  0  0  0  0  0  0  0
   -0.3393    2.0894   -0.1072 C   0  0  0  0  0  0  0  0  0  0  0  0
   -2.7283    1.4341   -0.0777 C   0  0  0  0  0  0  0  0  0  0  0  0
    9.2179   -0.2322   -1.1005 C   0  0  0  0  0  0  0  0  0  0  0  0
    9.1180   -0.6853    1.2045 C   0  0  0  0  0  0  0  0  0  0  0  0
   -5.1106    0.3675   -0.0305 C   0  0  0  0  0  0  0  0  0  0  0  0
    2.0004    2.9317   -0.1411 C   0  0  0  0  0  0  0  0  0  0  0  0
   -5.5312   -0.9643    0.0155 C   0  0  0  0  0  0  0  0  0  0  0  0
   -6.0920    1.3806   -0.0582 C   0  0  0  0  0  0  0  0  0  0  0  0
   -6.8814   -1.3326    0.0348 C   0  0  0  0  0  0  0  0  0  0  0  0
    2.6233    3.2043    1.2245 C   0  0  0  0  0  0  0  0  0  0  0  0
   -7.4461    1.0271   -0.0391 C   0  0  0  0  0  0  0  0  0  0  0  0
   -7.8328   -0.3099    0.0067 C   0  0  0  0  0  0  0  0  0  0  0  0
   -9.2231   -0.6437    0.0249 C   0  0  0  0  0  0  0  0  0  0  0  0
    5.4760   -1.6559   -0.3731 H   0  0  0  0  0  0  0  0  0  0  0  0
    5.1401    1.3142   -1.0570 H   0  0  0  0  0  0  0  0  0  0  0  0
    5.3945    0.0142   -2.2285 H   0  0  0  0  0  0  0  0  0  0  0  0
    5.2337   -0.9580    2.0048 H   0  0  0  0  0  0  0  0  0  0  0  0
    5.0540    0.7289    1.5038 H   0  0  0  0  0  0  0  0  0  0  0  0
    3.0528    0.6523   -2.1111 H   0  0  0  0  0  0  0  0  0  0  0  0
    3.2977   -1.0478   -1.7030 H   0  0  0  0  0  0  0  0  0  0  0  0
    3.1993   -1.6443    0.9467 H   0  0  0  0  0  0  0  0  0  0  0  0
    2.9018   -0.2647    2.0140 H   0  0  0  0  0  0  0  0  0  0  0  0
    7.6205   -1.6158   -1.5342 H   0  0  0  0  0  0  0  0  0  0  0  0
    7.3844    0.0580   -2.0881 H   0  0  0  0  0  0  0  0  0  0  0  0
    7.2104   -0.7570    2.0736 H   0  0  0  0  0  0  0  0  0  0  0  0
    7.5122   -2.1051    0.9497 H   0  0  0  0  0  0  0  0  0  0  0  0
    0.8751   -1.5846    0.0017 H   0  0  0  0  0  0  0  0  0  0  0  0
   -0.6351   -2.7321    1.3506 H   0  0  0  0  0  0  0  0  0  0  0  0
   -1.7709   -1.6766    2.1988 H   0  0  0  0  0  0  0  0  0  0  0  0
   -2.3485   -3.1327    1.3803 H   0  0  0  0  0  0  0  0  0  0  0  0
   -1.7895   -1.8172   -2.1526 H   0  0  0  0  0  0  0  0  0  0  0  0
   -0.6469   -2.8169   -1.2477 H   0  0  0  0  0  0  0  0  0  0  0  0
   -2.3606   -3.2169   -1.2370 H   0  0  0  0  0  0  0  0  0  0  0  0
   -0.6633    3.1273   -0.1368 H   0  0  0  0  0  0  0  0  0  0  0  0
    9.3800    0.8383   -0.9239 H   0  0  0  0  0  0  0  0  0  0  0  0
    9.7592   -0.5026   -2.0129 H   0  0  0  0  0  0  0  0  0  0  0  0
    9.5862   -1.2888    1.9889 H   0  0  0  0  0  0  0  0  0  0  0  0
    9.2761    0.3699    1.4593 H   0  0  0  0  0  0  0  0  0  0  0  0
   -4.4031   -2.7596    0.0687 H   0  0  0  0  0  0  0  0  0  0  0  0
    1.5054    3.8479   -0.4879 H   0  0  0  0  0  0  0  0  0  0  0  0
    2.7871    2.7396   -0.8791 H   0  0  0  0  0  0  0  0  0  0  0  0
   -5.8113    2.4292   -0.0939 H   0  0  0  0  0  0  0  0  0  0  0  0
   -7.1695   -2.3792    0.0706 H   0  0  0  0  0  0  0  0  0  0  0  0
    3.1923    2.3508    1.6002 H   0  0  0  0  0  0  0  0  0  0  0  0
    3.3064    4.0574    1.1601 H   0  0  0  0  0  0  0  0  0  0  0  0
    1.8532    3.4442    1.9658 H   0  0  0  0  0  0  0  0  0  0  0  0
   -8.1919    1.8192   -0.0609 H   0  0  0  0  0  0  0  0  0  0  0  0
  1 26  1  0  0  0  0
  1 27  1  0  0  0  0
  2 25  2  0  0  0  0
  3 10  1  0  0  0  0
  3 11  1  0  0  0  0
  3 13  1  0  0  0  0
  4  7  1  0  0  0  0
  4 16  1  0  0  0  0
  4 17  1  0  0  0  0
  5 15  1  0  0  0  0
  5 30  1  0  0  0  0
  5 62  1  0  0  0  0
  6 36  3  0  0  0  0
  7  8  1  0  0  0  0
  7  9  1  0  0  0  0
  7 37  1  0  0  0  0
  8 10  1  0  0  0  0
  8 38  1  0  0  0  0
  8 39  1  0  0  0  0
  9 11  1  0  0  0  0
  9 40  1  0  0  0  0
  9 41  1  0  0  0  0
 10 42  1  0  0  0  0
 10 43  1  0  0  0  0
 11 44  1  0  0  0  0
 11 45  1  0  0  0  0
 12 14  1  0  0  0  0
 12 15  1  0  0  0  0
 12 22  1  0  0  0  0
 12 23  1  0  0  0  0
 13 18  2  0  0  0  0
 13 20  1  0  0  0  0
 14 18  1  0  0  0  0
 14 19  2  0  0  0  0
 15 21  2  0  0  0  0
 16 26  1  0  0  0  0
 16 46  1  0  0  0  0
 16 47  1  0  0  0  0
 17 27  1  0  0  0  0
 17 48  1  0  0  0  0
 17 49  1  0  0  0  0
 18 50  1  0  0  0  0
 19 24  1  0  0  0  0
 19 25  1  0  0  0  0
 20 24  2  0  0  0  0
 20 29  1  0  0  0  0
 21 25  1  0  0  0  0
 21 28  1  0  0  0  0
 22 51  1  0  0  0  0
 22 52  1  0  0  0  0
 22 53  1  0  0  0  0
 23 54  1  0  0  0  0
 23 55  1  0  0  0  0
 23 56  1  0  0  0  0
 24 57  1  0  0  0  0
 26 58  1  0  0  0  0
 26 59  1  0  0  0  0
 27 60  1  0  0  0  0
 27 61  1  0  0  0  0
 28 30  2  0  0  0  0
 28 31  1  0  0  0  0
 29 33  1  0  0  0  0
 29 63  1  0  0  0  0
 29 64  1  0  0  0  0
 30 32  1  0  0  0  0
 31 34  2  0  0  0  0
 31 65  1  0  0  0  0
 32 35  2  0  0  0  0
 32 66  1  0  0  0  0
 33 67  1  0  0  0  0
 33 68  1  0  0  0  0
 33 69  1  0  0  0  0
 34 35  1  0  0  0  0
 34 70  1  0  0  0  0
 35 36  1  0  0  0  0
M  END
> <PUBCHEM_COMPOUND_CID>
49806720

> <PUBCHEM_CONFORMER_RMSD>
0.8

> <PUBCHEM_CONFORMER_DIVERSEORDER>
1
8
7
14
6
9
24
17
11
22
2
25
3
23
19
12
10
13
18
15
20
4
16
21
5

> <PUBCHEM_MMFF94_PARTIAL_CHARGES>
36
1 -0.56
10 0.37
11 0.37
12 0.32
13 0.1
14 -0.14
15 -0.33
16 0.27
17 0.27
18 -0.15
19 0.09
2 -0.57
20 -0.14
21 -0.09
24 -0.15
25 0.57
26 0.28
27 0.28
29 0.14
3 -0.84
30 -0.15
31 -0.15
32 -0.15
34 -0.15
35 0.07
36 0.48
4 -0.81
5 0.03
50 0.15
57 0.15
6 -0.56
62 0.27
65 0.15
66 0.15
7 0.27
70 0.15

> <PUBCHEM_EFFECTIVE_ROTOR_COUNT>
5.6

> <PUBCHEM_PHARMACOPHORE_FEATURES>
15
1 1 acceptor
1 2 acceptor
1 3 cation
1 33 hydrophobe
1 4 cation
1 5 cation
1 5 donor
1 6 acceptor
3 12 22 23 hydrophobe
5 5 15 21 28 30 rings
6 1 4 16 17 26 27 rings
6 12 14 15 19 21 25 rings
6 13 14 18 19 20 24 rings
6 28 30 31 32 34 35 rings
6 3 7 8 9 10 11 rings

> <PUBCHEM_HEAVY_ATOM_COUNT>
36

> <PUBCHEM_ATOM_DEF_STEREO_COUNT>
0

> <PUBCHEM_ATOM_UDEF_STEREO_COUNT>
0

> <PUBCHEM_BOND_DEF_STEREO_COUNT>
0

> <PUBCHEM_BOND_UDEF_STEREO_COUNT>
0

> <PUBCHEM_ISOTOPIC_ATOM_COUNT>
0

> <PUBCHEM_COMPONENT_COUNT>
1

> <PUBCHEM_CACTVS_TAUTO_COUNT>
3

> <PUBCHEM_CONFORMER_ID>
02F7FD8000000001

> <PUBCHEM_MMFF94_ENERGY>
100.855

> <PUBCHEM_FEATURE_SELFOVERLAP>
76.314

> <PUBCHEM_SHAPE_FINGERPRINT>
10050765 1 18123469646356195462
10076449 9 18040152907379436573
10165383 225 16732983132841808195
10299344 5 17894911824118927466
10674148 151 18260545637032947448
11456790 92 17988935491853470481
11578080 2 16986575714621651089
12089408 11 18040436568694726708
12133447 93 18058464114278950484
12236239 1 17894632518564652052
12741549 16 17275384296308662944
12758862 56 18336542806570561962
13811026 1 18341896298452522510
14068700 675 18410014338308397325
14117953 113 18201723959279879726
14251764 46 17346598573333195822
15131766 46 15938968732131693806
15183329 4 18335425663943675621
15301273 46 17632577133287561346
15347591 1 18120658191319660799
15419008 47 17775279444395319328
15439362 3 17243313887785560420
15840311 113 18186804716816684836
15849732 13 18131069337620229774
15890870 6 18040716965413840995
16087824 20 18336544898900915605
19315958 150 17060339630737291054
21267235 1 18410293618382122737
21360443 120 17676205745149626995
21781055 127 17488485051550540281
21792934 111 18343295985999231184
21792961 116 17894627046649703575
22311459 1 18410292510254206055
232437 2 18335139790904986947
23559900 14 18339076119968755369
23569917 315 18341053034177417455
23569943 247 17556036696546207815
24893992 56 18335139834540540379
249057 3 18341893012913369422
3004659 81 18260830418559923764
335352 9 18408323302498852495
3383291 50 18343586247893661719
3411729 13 18197772418191977016
350125 39 18408039602882472365
4017518 198 17561086908287560678
439807 62 18259705614639673452
5283156 175 18113054922906967090
6081469 158 17203329996895343290
6138700 20 18409168814335187471
6371380 46 18334857250839684298
9663363 56 18413386545387264874
9962374 69 18272082850902533341

> <PUBCHEM_SHAPE_MULTIPOLES>
709.2
29.76
2.4
1.07
11.72
1.52
0.02
-11.17
-0.23
-0.92
0.32
2.02
-0.2
-0.01

> <PUBCHEM_SHAPE_SELFOVERLAP>
1562.621

> <PUBCHEM_SHAPE_VOLUME>
380

> <PUBCHEM_COORDINATE_TYPE>
2
5
10

$$$$
25126798
  -OEChem-11282412143D

 41 44  0     1  0  0  0  0  0999 V2000
    1.3386    0.3610   -0.2656 N   0  0  0  0  0  0  0  0  0  0  0  0
    1.0005    0.0271   -1.5227 N   0  0  0  0  0  0  0  0  0  0  0  0
   -2.4702    1.2092    1.2987 N   0  0  0  0  0  0  0  0  0  0  0  0
    2.3181    3.9805   -0.3313 N   0  0  0  0  0  0  0  0  0  0  0  0
   -5.3145   -1.1437   -0.3434 N   0  0  0  0  0  0  0  0  0  0  0  0
   -4.8109    0.5396    1.3080 N   0  0  0  0  0  0  0  0  0  0  0  0
    3.5603   -0.7941   -0.0630 C   0  0  0  0  0  0  0  0  0  0  0  0
    5.0258   -0.7067    0.3514 C   0  0  0  0  0  0  0  0  0  0  0  0
    3.0346   -1.9100    0.8344 C   0  0  0  0  0  0  0  0  0  0  0  0
    2.8105    0.5153    0.1080 C   0  0  1  0  0  0  0  0  0  0  0  0
    5.4450   -2.1613    0.5397 C   0  0  0  0  0  0  0  0  0  0  0  0
    4.1623   -2.9369    0.8448 C   0  0  0  0  0  0  0  0  0  0  0  0
    3.4946    1.6529   -0.6863 C   0  0  0  0  0  0  0  0  0  0  0  0
    0.2708    0.5273    0.5666 C   0  0  0  0  0  0  0  0  0  0  0  0
   -0.8434    0.2855   -0.1994 C   0  0  0  0  0  0  0  0  0  0  0  0
    2.8361    2.9542   -0.4882 C   0  0  0  0  0  0  0  0  0  0  0  0
   -0.3337   -0.0174   -1.4763 C   0  0  0  0  0  0  0  0  0  0  0  0
   -2.1850    0.3530    0.2906 C   0  0  0  0  0  0  0  0  0  0  0  0
   -3.1990   -0.4396   -0.2453 C   0  0  0  0  0  0  0  0  0  0  0  0
   -4.4645   -0.2905    0.3088 C   0  0  0  0  0  0  0  0  0  0  0  0
   -3.3068   -1.4198   -1.2648 C   0  0  0  0  0  0  0  0  0  0  0  0
   -4.6211   -1.8350   -1.3034 C   0  0  0  0  0  0  0  0  0  0  0  0
   -3.7481    1.2492    1.7387 C   0  0  0  0  0  0  0  0  0  0  0  0
    3.5085   -1.1283   -1.1089 H   0  0  0  0  0  0  0  0  0  0  0  0
    5.1359   -0.1652    1.2990 H   0  0  0  0  0  0  0  0  0  0  0  0
    5.6539   -0.2148   -0.3977 H   0  0  0  0  0  0  0  0  0  0  0  0
    2.0995   -2.3445    0.4677 H   0  0  0  0  0  0  0  0  0  0  0  0
    2.8600   -1.5456    1.8543 H   0  0  0  0  0  0  0  0  0  0  0  0
    2.7808    0.7961    1.1706 H   0  0  0  0  0  0  0  0  0  0  0  0
    6.1823   -2.2619    1.3425 H   0  0  0  0  0  0  0  0  0  0  0  0
    5.9033   -2.5494   -0.3774 H   0  0  0  0  0  0  0  0  0  0  0  0
    3.9951   -3.6950    0.0709 H   0  0  0  0  0  0  0  0  0  0  0  0
    4.2192   -3.4570    1.8064 H   0  0  0  0  0  0  0  0  0  0  0  0
    3.5026    1.4133   -1.7565 H   0  0  0  0  0  0  0  0  0  0  0  0
    4.5387    1.7638   -0.3752 H   0  0  0  0  0  0  0  0  0  0  0  0
    0.3969    0.7949    1.6073 H   0  0  0  0  0  0  0  0  0  0  0  0
   -0.8627   -0.2523   -2.3883 H   0  0  0  0  0  0  0  0  0  0  0  0
   -2.5277   -1.8072   -1.9051 H   0  0  0  0  0  0  0  0  0  0  0  0
   -6.3004   -1.2474   -0.1470 H   0  0  0  0  0  0  0  0  0  0  0  0
   -5.1226   -2.5630   -1.9253 H   0  0  0  0  0  0  0  0  0  0  0  0
   -3.9434    1.9453    2.5472 H   0  0  0  0  0  0  0  0  0  0  0  0
  1  2  1  0  0  0  0
  1 10  1  0  0  0  0
  1 14  1  0  0  0  0
  2 17  2  0  0  0  0
  3 18  1  0  0  0  0
  3 23  2  0  0  0  0
  4 16  3  0  0  0  0
  5 20  1  0  0  0  0
  5 22  1  0  0  0  0
  5 39  1  0  0  0  0
  6 20  2  0  0  0  0
  6 23  1  0  0  0  0
  7  8  1  0  0  0  0
  7  9  1  0  0  0  0
  7 10  1  0  0  0  0
  7 24  1  0  0  0  0
  8 11  1  0  0  0  0
  8 25  1  0  0  0  0
  8 26  1  0  0  0  0
  9 12  1  0  0  0  0
  9 27  1  0  0  0  0
  9 28  1  0  0  0  0
 10 13  1  0  0  0  0
 10 29  1  0  0  0  0
 11 12  1  0  0  0  0
 11 30  1  0  0  0  0
 11 31  1  0  0  0  0
 12 32  1  0  0  0  0
 12 33  1  0  0  0  0
 13 16  1  0  0  0  0
 13 34  1  0  0  0  0
 13 35  1  0  0  0  0
 14 15  2  0  0  0  0
 14 36  1  0  0  0  0
 15 17  1  0  0  0  0
 15 18  1  0  0  0  0
 17 37  1  0  0  0  0
 18 19  2  0  0  0  0
 19 20  1  0  0  0  0
 19 21  1  0  0  0  0
 21 22  2  0  0  0  0
 21 38  1  0  0  0  0
 22 40  1  0  0  0  0
 23 41  1  0  0  0  0
M  END
> <PUBCHEM_COMPOUND_CID>
25126798

> <PUBCHEM_CONFORMER_RMSD>
0.8

> <PUBCHEM_CONFORMER_DIVERSEORDER>
1
85
16
58
76
69
43
79
8
49
27
59
24
67
44
29
28
46
72
91
9
41
26
7
96
65
110
33
60
35
100
11
22
62
86
55
42
101
36
94
37
52
32
89
18
45
53
64
74
10
17
73
102
75
5
71
109
25
61
104
40
97
12
93
56
31
68
19
87
80
98
99
63
38
14
30
66
92
83
81
88
95
2
3
82
21
48
13
20
34
57
4
6
78
54
51
47
107
15
23
39
90
105
50
84
106
108
77
70
103

> <PUBCHEM_MMFF94_PARTIAL_CHARGES>
23
1 0.31
10 0.26
13 0.2
14 -0.3
15 -0.05
16 0.36
17 0.14
18 0.36
2 -0.71
20 0.11
21 -0.15
22 -0.3
23 0.47
3 -0.62
36 0.15
37 0.15
38 0.15
39 0.27
4 -0.56
40 0.15
41 0.15
5 0.03
6 -0.57

> <PUBCHEM_EFFECTIVE_ROTOR_COUNT>
5

> <PUBCHEM_PHARMACOPHORE_FEATURES>
9
1 2 acceptor
1 4 acceptor
1 5 donor
3 3 6 23 cation
3 5 6 20 cation
5 1 2 14 15 17 rings
5 5 19 20 21 22 rings
5 7 8 9 11 12 rings
6 3 6 18 19 20 23 rings

> <PUBCHEM_HEAVY_ATOM_COUNT>
23

> <PUBCHEM_ATOM_DEF_STEREO_COUNT>
1

> <PUBCHEM_ATOM_UDEF_STEREO_COUNT>
0

> <PUBCHEM_BOND_DEF_STEREO_COUNT>
0

> <PUBCHEM_BOND_UDEF_STEREO_COUNT>
0

> <PUBCHEM_ISOTOPIC_ATOM_COUNT>
0

> <PUBCHEM_COMPONENT_COUNT>
1

> <PUBCHEM_CACTVS_TAUTO_COUNT>
3

> <PUBCHEM_CONFORMER_ID>
017F678E00000001

> <PUBCHEM_MMFF94_ENERGY>
38.5231

> <PUBCHEM_FEATURE_SELFOVERLAP>
45.95

> <PUBCHEM_SHAPE_FINGERPRINT>
10319926 262 17131557120102301094
10366900 7 18113627819466770740
10912923 1 18272939353354573825
12107183 9 18196659484226424425
12236239 1 18343301461523026362
12596602 18 17846492622050643738
12616971 3 18412270532057359377
12633257 1 18271813380259174831
12670546 56 18272085010959931017
12788726 201 17774451597954143915
12839892 36 17704069573336966703
13009979 54 18059582351884736376
13167823 11 18413671322508387695
13533116 47 18335139834149851115
13544653 18 18041000579547365542
13583140 156 18190189055838856601
13911852 28 18118679925220512090
13914758 101 18336821980267695261
13955234 65 18264486355352838392
14178342 30 17845662425914347359
14386348 63 16443070482197701402
14739800 52 17559383863575895408
14849402 71 18270958072768911896
15142526 21 17764305446261042184
15250474 111 18272082850803027647
15788980 27 18259984851421354391
17349148 13 18060137643557871999
17857418 61 18413101749546707811
17870717 6 15140966123733359091
1813 80 18336555897963280326
18681886 176 17417822802520070436
19377110 9 18129948999817348345
20645477 70 17822286903360653202
21033648 29 17168133589886492661
21065198 48 18343865523783189576
21728266 224 17988915678816249391
2255824 54 18410015481190931268
22950370 63 18338238138127610838
23366157 5 17984975162228556945
23557571 272 16486430805708203337
23559900 14 18262232339130072624
25147074 1 18201445804439560353
3004659 81 18131358526352987637
312423 11 18342745147294064357
314194 84 18187086109809221386
345986 75 18117548532049913976
3633792 109 18263626464382591263
3737641 26 17975977566710833802
474 4 18047474705659526028
5104073 3 17988648536155715323
5312544 6 18267866270986106700
573450 72 18131913745787431475
67856867 119 18271523203573675864
6823239 73 15285647615952603524
7970288 3 18192424183059965370
9981440 41 17617091847160344408

> <PUBCHEM_SHAPE_MULTIPOLES>
443.44
12.39
3
1.35
2.62
1.82
-0.02
-6.55
-1.94
-4.4
0.09
1.24
0
-2.89

> <PUBCHEM_SHAPE_SELFOVERLAP>
970.048

> <PUBCHEM_SHAPE_VOLUME>
238.1

> <PUBCHEM_COORDINATE_TYPE>
2
5
10

$$$$
9893171
  -OEChem-11282412143D

 66 70  0     0  0  0  0  0  0999 V2000
   -5.2363    0.1718   -2.8918 Cl  0  0  0  0  0  0  0  0  0  0  0  0
    2.8668    2.5553   -0.6888 O   0  0  0  0  0  0  0  0  0  0  0  0
    5.8486   -3.6556    1.6063 O   0  0  0  0  0  0  0  0  0  0  0  0
   -1.0589    0.3057   -2.0802 O   0  0  0  0  0  0  0  0  0  0  0  0
   -3.6212   -0.9025    1.9070 O   0  0  0  0  0  0  0  0  0  0  0  0
   -5.4852   -2.3851    2.2950 O   0  0  0  0  0  0  0  0  0  0  0  0
    5.1509    0.9432   -0.1553 N   0  0  0  0  0  0  0  0  0  0  0  0
    5.9370   -1.7843    0.2330 N   0  0  0  0  0  0  0  0  0  0  0  0
   -3.2253    0.5263   -0.6030 N   0  0  0  0  0  0  0  0  0  0  0  0
   -1.0770    2.9411    1.9762 N   0  0  0  0  0  0  0  0  0  0  0  0
   -3.1126    1.8243    1.3313 N   0  0  0  0  0  0  0  0  0  0  0  0
   -6.4755   -2.0912    0.1487 N   0  0  0  0  0  0  0  0  0  0  0  0
    6.5395    0.5268   -0.4001 C   0  0  0  0  0  0  0  0  0  0  0  0
    4.5569    0.1423    0.9250 C   0  0  0  0  0  0  0  0  0  0  0  0
    6.6098   -0.9556   -0.7715 C   0  0  0  0  0  0  0  0  0  0  0  0
    4.5849   -1.3450    0.5747 C   0  0  0  0  0  0  0  0  0  0  0  0
    5.0916    2.3678    0.1693 C   0  0  0  0  0  0  0  0  0  0  0  0
    3.6619    2.7917    0.4657 C   0  0  0  0  0  0  0  0  0  0  0  0
    6.4345   -2.9751    0.7606 C   0  0  0  0  0  0  0  0  0  0  0  0
    7.7777   -3.4302    0.2482 C   0  0  0  0  0  0  0  0  0  0  0  0
    1.5494    2.2416   -0.4781 C   0  0  0  0  0  0  0  0  0  0  0  0
   -1.1228    1.6216   -0.0257 C   0  0  0  0  0  0  0  0  0  0  0  0
    0.8763    1.4242   -1.3794 C   0  0  0  0  0  0  0  0  0  0  0  0
   -0.4610    1.1119   -1.1563 C   0  0  0  0  0  0  0  0  0  0  0  0
    0.8842    2.7446    0.6439 C   0  0  0  0  0  0  0  0  0  0  0  0
   -0.4538    2.4480    0.8917 C   0  0  0  0  0  0  0  0  0  0  0  0
   -2.4583    1.3477    0.2555 C   0  0  0  0  0  0  0  0  0  0  0  0
   -0.4954   -0.9900   -2.2683 C   0  0  0  0  0  0  0  0  0  0  0  0
   -4.3104   -0.3371   -0.3726 C   0  0  0  0  0  0  0  0  0  0  0  0
   -1.5350   -2.0438   -1.9180 C   0  0  0  0  0  0  0  0  0  0  0  0
   -0.0152   -1.1235   -3.7054 C   0  0  0  0  0  0  0  0  0  0  0  0
   -4.4442   -0.9845    0.8334 C   0  0  0  0  0  0  0  0  0  0  0  0
   -2.3724    2.6024    2.1372 C   0  0  0  0  0  0  0  0  0  0  0  0
   -5.5069   -1.8213    1.0366 C   0  0  0  0  0  0  0  0  0  0  0  0
   -5.2855   -0.5747   -1.3402 C   0  0  0  0  0  0  0  0  0  0  0  0
   -4.2841   -1.7910    2.8308 C   0  0  0  0  0  0  0  0  0  0  0  0
   -6.3332   -1.4476   -1.0355 C   0  0  0  0  0  0  0  0  0  0  0  0
    6.9660    1.1102   -1.2247 H   0  0  0  0  0  0  0  0  0  0  0  0
    7.1590    0.7089    0.4884 H   0  0  0  0  0  0  0  0  0  0  0  0
    5.0863    0.3101    1.8722 H   0  0  0  0  0  0  0  0  0  0  0  0
    3.4994    0.3686    1.0820 H   0  0  0  0  0  0  0  0  0  0  0  0
    7.6558   -1.2432   -0.8964 H   0  0  0  0  0  0  0  0  0  0  0  0
    6.1043   -1.1366   -1.7280 H   0  0  0  0  0  0  0  0  0  0  0  0
    4.1873   -1.9308    1.4099 H   0  0  0  0  0  0  0  0  0  0  0  0
    3.9496   -1.5476   -0.2968 H   0  0  0  0  0  0  0  0  0  0  0  0
    5.4565    2.9401   -0.6926 H   0  0  0  0  0  0  0  0  0  0  0  0
    5.7289    2.6121    1.0284 H   0  0  0  0  0  0  0  0  0  0  0  0
    3.2874    2.3259    1.3833 H   0  0  0  0  0  0  0  0  0  0  0  0
    3.6626    3.8744    0.6461 H   0  0  0  0  0  0  0  0  0  0  0  0
    8.0166   -4.4097    0.6739 H   0  0  0  0  0  0  0  0  0  0  0  0
    7.7568   -3.5300   -0.8403 H   0  0  0  0  0  0  0  0  0  0  0  0
    8.5545   -2.7245    0.5537 H   0  0  0  0  0  0  0  0  0  0  0  0
    1.4070    1.0551   -2.2516 H   0  0  0  0  0  0  0  0  0  0  0  0
    1.3831    3.4159    1.3398 H   0  0  0  0  0  0  0  0  0  0  0  0
    0.3642   -1.1554   -1.6043 H   0  0  0  0  0  0  0  0  0  0  0  0
   -3.0754    0.7300   -1.5875 H   0  0  0  0  0  0  0  0  0  0  0  0
   -1.8063   -1.9778   -0.8599 H   0  0  0  0  0  0  0  0  0  0  0  0
   -1.1556   -3.0529   -2.1070 H   0  0  0  0  0  0  0  0  0  0  0  0
   -2.4516   -1.9017   -2.4997 H   0  0  0  0  0  0  0  0  0  0  0  0
    0.7331   -0.3626   -3.9466 H   0  0  0  0  0  0  0  0  0  0  0  0
   -0.8450   -0.9775   -4.4061 H   0  0  0  0  0  0  0  0  0  0  0  0
    0.4236   -2.1094   -3.8872 H   0  0  0  0  0  0  0  0  0  0  0  0
   -2.8686    3.0019    3.0132 H   0  0  0  0  0  0  0  0  0  0  0  0
   -4.5450   -1.2265    3.7333 H   0  0  0  0  0  0  0  0  0  0  0  0
   -3.5891   -2.5927    3.1055 H   0  0  0  0  0  0  0  0  0  0  0  0
   -7.1152   -1.6631   -1.7580 H   0  0  0  0  0  0  0  0  0  0  0  0
  1 35  1  0  0  0  0
  2 18  1  0  0  0  0
  2 21  1  0  0  0  0
  3 19  2  0  0  0  0
  4 24  1  0  0  0  0
  4 28  1  0  0  0  0
  5 32  1  0  0  0  0
  5 36  1  0  0  0  0
  6 34  1  0  0  0  0
  6 36  1  0  0  0  0
  7 13  1  0  0  0  0
  7 14  1  0  0  0  0
  7 17  1  0  0  0  0
  8 15  1  0  0  0  0
  8 16  1  0  0  0  0
  8 19  1  0  0  0  0
  9 27  1  0  0  0  0
  9 29  1  0  0  0  0
  9 56  1  0  0  0  0
 10 26  1  0  0  0  0
 10 33  2  0  0  0  0
 11 27  2  0  0  0  0
 11 33  1  0  0  0  0
 12 34  2  0  0  0  0
 12 37  1  0  0  0  0
 13 15  1  0  0  0  0
 13 38  1  0  0  0  0
 13 39  1  0  0  0  0
 14 16  1  0  0  0  0
 14 40  1  0  0  0  0
 14 41  1  0  0  0  0
 15 42  1  0  0  0  0
 15 43  1  0  0  0  0
 16 44  1  0  0  0  0
 16 45  1  0  0  0  0
 17 18  1  0  0  0  0
 17 46  1  0  0  0  0
 17 47  1  0  0  0  0
 18 48  1  0  0  0  0
 18 49  1  0  0  0  0
 19 20  1  0  0  0  0
 20 50  1  0  0  0  0
 20 51  1  0  0  0  0
 20 52  1  0  0  0  0
 21 23  1  0  0  0  0
 21 25  2  0  0  0  0
 22 24  1  0  0  0  0
 22 26  2  0  0  0  0
 22 27  1  0  0  0  0
 23 24  2  0  0  0  0
 23 53  1  0  0  0  0
 25 26  1  0  0  0  0
 25 54  1  0  0  0  0
 28 30  1  0  0  0  0
 28 31  1  0  0  0  0
 28 55  1  0  0  0  0
 29 32  2  0  0  0  0
 29 35  1  0  0  0  0
 30 57  1  0  0  0  0
 30 58  1  0  0  0  0
 30 59  1  0  0  0  0
 31 60  1  0  0  0  0
 31 61  1  0  0  0  0
 31 62  1  0  0  0  0
 32 34  1  0  0  0  0
 33 63  1  0  0  0  0
 35 37  2  0  0  0  0
 36 64  1  0  0  0  0
 36 65  1  0  0  0  0
 37 66  1  0  0  0  0
M  END
> <PUBCHEM_COMPOUND_CID>
9893171

> <PUBCHEM_CONFORMER_RMSD>
1.2

> <PUBCHEM_CONFORMER_DIVERSEORDER>
12
57
49
47
16
60
27
65
82
83
63
25
19
44
67
92
51
84
6
62
13
55
24
54
69
40
86
56
77
35
53
31
87
32
73
75
74
68
93
81
76
59
46
22
61
94
90
14
26
30
70
17
58
71
50
34
39
10
21
79
28
45
78
85
2
91
88
20
33
1
80
23
42
29
72
5
11
37
52
9
41
48
66
43
3
38
95
18
64
36
7
8
4
15
89

> <PUBCHEM_MMFF94_PARTIAL_CHARGES>
39
1 -0.18
10 -0.62
11 -0.62
12 -0.62
13 0.27
14 0.27
15 0.3
16 0.3
17 0.27
18 0.28
19 0.57
2 -0.36
20 0.06
21 0.08
23 -0.15
24 0.08
25 -0.15
26 0.31
27 0.41
28 0.28
29 0.1
3 -0.57
32 0.08
33 0.47
34 0.39
35 0.18
36 0.56
37 0.16
4 -0.36
5 -0.36
53 0.15
54 0.15
56 0.4
6 -0.36
63 0.15
66 0.15
7 -0.81
8 -0.66
9 -0.6

> <PUBCHEM_EFFECTIVE_ROTOR_COUNT>
10.8

> <PUBCHEM_PHARMACOPHORE_FEATURES>
14
1 2 acceptor
1 3 acceptor
1 4 acceptor
1 5 acceptor
1 7 cation
1 9 donor
3 10 11 33 cation
3 28 30 31 hydrophobe
3 9 11 27 cation
5 5 6 32 34 36 rings
6 10 11 22 26 27 33 rings
6 12 29 32 34 35 37 rings
6 21 22 23 24 25 26 rings
6 7 8 13 14 15 16 rings

> <PUBCHEM_HEAVY_ATOM_COUNT>
37

> <PUBCHEM_ATOM_DEF_STEREO_COUNT>
0

> <PUBCHEM_ATOM_UDEF_STEREO_COUNT>
0

> <PUBCHEM_BOND_DEF_STEREO_COUNT>
0

> <PUBCHEM_BOND_UDEF_STEREO_COUNT>
0

> <PUBCHEM_ISOTOPIC_ATOM_COUNT>
0

> <PUBCHEM_COMPONENT_COUNT>
1

> <PUBCHEM_CACTVS_TAUTO_COUNT>
4

> <PUBCHEM_CONFORMER_ID>
0096F5330000000C

> <PUBCHEM_MMFF94_ENERGY>
127.5068

> <PUBCHEM_FEATURE_SELFOVERLAP>
71.363

> <PUBCHEM_SHAPE_FINGERPRINT>
10305334 12 18050573941016370208
117089 54 18266182734671158210
12422481 6 17632029562704932333
12633257 1 16558746841155988560
13383661 66 17606141694752262514
13383668 40 18260832597216216307
13692115 46 14996582663198985475
13782708 43 17895754122887247603
14118638 360 18343022216410458528
14739800 52 13757536382665806047
15510800 12 18259980479529802026
16728300 4 18342736290997582279
19319366 153 17981048832023291748
19841028 212 18335696139905202842
208703 8 18338228255618885362
21033650 10 16009020675564616989
21814621 53 18041544915049710437
23559900 14 17822284747587894061
23569914 2 13684335180317934051
24983565 74 18056469780285420447
2838139 119 11095894726270734896
392239 28 17918279765807197055
42767 28 17749384845532283714
437795 70 16081364163746746645
44880568 143 17022895782968970460
474113 269 18201429286401288359
50009960 94 18262786369143659626
513202 73 18343585118374940977
54039377 194 18339923702892015614
57724786 102 12678881460478146616
6201320 77 18042427805738106931
9896288 288 17771347470433494376

> <PUBCHEM_SHAPE_MULTIPOLES>
704.08
19.04
4.14
2.71
19.32
0.02
0.88
18.8
-4.3
5.07
-2
-4.1
1.27
-1.08

> <PUBCHEM_SHAPE_SELFOVERLAP>
1515.392

> <PUBCHEM_SHAPE_VOLUME>
388.8

> <PUBCHEM_COORDINATE_TYPE>
2
5
10

$$$$
134436906
  -OEChem-11282412143D

 70 75  0     1  0  0  0  0  0999 V2000
    8.5099   -3.5570   -1.4710 O   0  0  0  0  0  0  0  0  0  0  0  0
   -5.4965   -2.2985    0.2341 O   0  0  0  0  0  0  0  0  0  0  0  0
   -8.6420   -4.1659    0.2255 O   0  0  0  0  0  0  0  0  0  0  0  0
    4.8838    0.9728    0.9527 N   0  0  0  0  0  0  0  0  0  0  0  0
    2.1755    1.5401    0.4557 N   0  0  0  0  0  0  0  0  0  0  0  0
    0.3277    0.9724   -0.9039 N   0  0  0  0  0  0  0  0  0  0  0  0
    7.2831   -2.6809    0.2934 N   0  0  0  0  0  0  0  0  0  0  0  0
   -5.6327    1.2765   -0.5297 N   0  0  0  0  0  0  0  0  0  0  0  0
   -6.3980    2.3524   -0.8584 N   0  0  0  0  0  0  0  0  0  0  0  0
   -2.1022    4.4705   -0.7523 N   0  0  0  0  0  0  0  0  0  0  0  0
    4.2721    2.1288    1.6776 C   0  0  1  0  0  0  0  0  0  0  0  0
    4.5479    1.7081   -0.3052 C   0  0  2  0  0  0  0  0  0  0  0  0
    4.6477    3.0373    0.4819 C   0  0  0  0  0  0  0  0  0  0  0  0
    2.7519    1.9114    1.7638 C   0  0  0  0  0  0  0  0  0  0  0  0
    3.0936    1.3904   -0.6918 C   0  0  0  0  0  0  0  0  0  0  0  0
    6.3236    0.8736    1.1739 C   0  0  0  0  0  0  0  0  0  0  0  0
    0.8073    1.3092    0.3143 C   0  0  0  0  0  0  0  0  0  0  0  0
    6.9246   -0.2945    0.4382 C   0  0  0  0  0  0  0  0  0  0  0  0
    0.0212    1.4430    1.4475 C   0  0  0  0  0  0  0  0  0  0  0  0
    7.6526   -0.1067   -0.7316 C   0  0  0  0  0  0  0  0  0  0  0  0
    6.7701   -1.5897    0.9049 C   0  0  0  0  0  0  0  0  0  0  0  0
   -1.3450    1.2167    1.3224 C   0  0  0  0  0  0  0  0  0  0  0  0
   -1.0050    0.7602   -0.9869 C   0  0  0  0  0  0  0  0  0  0  0  0
   -1.8759    0.8684    0.0853 C   0  0  0  0  0  0  0  0  0  0  0  0
    8.1959   -1.2048   -1.3894 C   0  0  0  0  0  0  0  0  0  0  0  0
    7.9846   -2.4594   -0.8409 C   0  0  0  0  0  0  0  0  0  0  0  0
   -3.3237    0.6203   -0.0813 C   0  0  0  0  0  0  0  0  0  0  0  0
   -4.2831    1.6347   -0.4240 C   0  0  0  0  0  0  0  0  0  0  0  0
   -3.7725   -0.6408    0.1255 C   0  0  0  0  0  0  0  0  0  0  0  0
   -5.1778   -0.9838    0.0031 C   0  0  0  0  0  0  0  0  0  0  0  0
   -4.2097    2.9792   -0.7078 C   0  0  0  0  0  0  0  0  0  0  0  0
   -6.0699   -0.0331   -0.3155 C   0  0  0  0  0  0  0  0  0  0  0  0
    8.2635   -4.8209   -0.8661 C   0  0  0  0  0  0  0  0  0  0  0  0
   -5.5340    3.3615   -0.9623 C   0  0  0  0  0  0  0  0  0  0  0  0
   -7.2309   -3.9865    0.3714 C   0  0  0  0  0  0  0  0  0  0  0  0
   -6.8885   -2.5186    0.0879 C   0  0  0  0  0  0  0  0  0  0  0  0
   -6.5489   -4.9336   -0.6165 C   0  0  0  0  0  0  0  0  0  0  0  0
   -6.8510   -4.3529    1.8072 C   0  0  0  0  0  0  0  0  0  0  0  0
   -3.0495    3.8003   -0.7322 C   0  0  0  0  0  0  0  0  0  0  0  0
    4.7229    2.3932    2.6398 H   0  0  0  0  0  0  0  0  0  0  0  0
    5.2402    1.6006   -1.1456 H   0  0  0  0  0  0  0  0  0  0  0  0
    3.9394    3.8277    0.2154 H   0  0  0  0  0  0  0  0  0  0  0  0
    5.6462    3.4851    0.5282 H   0  0  0  0  0  0  0  0  0  0  0  0
    2.5589    1.1202    2.4996 H   0  0  0  0  0  0  0  0  0  0  0  0
    2.2978    2.8433    2.1234 H   0  0  0  0  0  0  0  0  0  0  0  0
    2.7835    2.0662   -1.4983 H   0  0  0  0  0  0  0  0  0  0  0  0
    3.0368    0.3642   -1.0761 H   0  0  0  0  0  0  0  0  0  0  0  0
    6.5070    0.7140    2.2454 H   0  0  0  0  0  0  0  0  0  0  0  0
    6.8834    1.7834    0.9240 H   0  0  0  0  0  0  0  0  0  0  0  0
    0.3909    1.7119    2.4294 H   0  0  0  0  0  0  0  0  0  0  0  0
    7.8036    0.8886   -1.1403 H   0  0  0  0  0  0  0  0  0  0  0  0
    6.2126   -1.8005    1.8124 H   0  0  0  0  0  0  0  0  0  0  0  0
   -1.9843    1.3160    2.1961 H   0  0  0  0  0  0  0  0  0  0  0  0
   -1.3565    0.4925   -1.9791 H   0  0  0  0  0  0  0  0  0  0  0  0
    8.7661   -1.0752   -2.3028 H   0  0  0  0  0  0  0  0  0  0  0  0
   -3.0920   -1.4450    0.3945 H   0  0  0  0  0  0  0  0  0  0  0  0
   -7.1371   -0.1615   -0.4352 H   0  0  0  0  0  0  0  0  0  0  0  0
    7.1906   -5.0378   -0.8323 H   0  0  0  0  0  0  0  0  0  0  0  0
    8.7033   -4.8694    0.1358 H   0  0  0  0  0  0  0  0  0  0  0  0
    8.7429   -5.5878   -1.4817 H   0  0  0  0  0  0  0  0  0  0  0  0
   -7.2222   -2.2940   -0.9356 H   0  0  0  0  0  0  0  0  0  0  0  0
   -7.4679   -1.9076    0.7954 H   0  0  0  0  0  0  0  0  0  0  0  0
   -5.9150    4.3394   -1.2221 H   0  0  0  0  0  0  0  0  0  0  0  0
   -6.8489   -4.7025   -1.6450 H   0  0  0  0  0  0  0  0  0  0  0  0
   -6.8464   -5.9728   -0.4342 H   0  0  0  0  0  0  0  0  0  0  0  0
   -5.4577   -4.8742   -0.5528 H   0  0  0  0  0  0  0  0  0  0  0  0
   -7.3719   -3.7081    2.5243 H   0  0  0  0  0  0  0  0  0  0  0  0
   -7.1547   -5.3798    2.0416 H   0  0  0  0  0  0  0  0  0  0  0  0
   -5.7737   -4.2684    1.9825 H   0  0  0  0  0  0  0  0  0  0  0  0
   -8.8522   -5.0934    0.4287 H   0  0  0  0  0  0  0  0  0  0  0  0
  1 26  1  0  0  0  0
  1 33  1  0  0  0  0
  2 30  1  0  0  0  0
  2 36  1  0  0  0  0
  3 35  1  0  0  0  0
  3 70  1  0  0  0  0
  4 11  1  0  0  0  0
  4 12  1  0  0  0  0
  4 16  1  0  0  0  0
  5 14  1  0  0  0  0
  5 15  1  0  0  0  0
  5 17  1  0  0  0  0
  6 17  2  0  0  0  0
  6 23  1  0  0  0  0
  7 21  1  0  0  0  0
  7 26  2  0  0  0  0
  8  9  1  0  0  0  0
  8 28  1  0  0  0  0
  8 32  1  0  0  0  0
  9 34  2  0  0  0  0
 10 39  3  0  0  0  0
 11 13  1  0  0  0  0
 11 14  1  0  0  0  0
 11 40  1  0  0  0  0
 12 13  1  0  0  0  0
 12 15  1  0  0  0  0
 12 41  1  0  0  0  0
 13 42  1  0  0  0  0
 13 43  1  0  0  0  0
 14 44  1  0  0  0  0
 14 45  1  0  0  0  0
 15 46  1  0  0  0  0
 15 47  1  0  0  0  0
 16 18  1  0  0  0  0
 16 48  1  0  0  0  0
 16 49  1  0  0  0  0
 17 19  1  0  0  0  0
 18 20  1  0  0  0  0
 18 21  2  0  0  0  0
 19 22  2  0  0  0  0
 19 50  1  0  0  0  0
 20 25  2  0  0  0  0
 20 51  1  0  0  0  0
 21 52  1  0  0  0  0
 22 24  1  0  0  0  0
 22 53  1  0  0  0  0
 23 24  2  0  0  0  0
 23 54  1  0  0  0  0
 24 27  1  0  0  0  0
 25 26  1  0  0  0  0
 25 55  1  0  0  0  0
 27 28  1  0  0  0  0
 27 29  2  0  0  0  0
 28 31  2  0  0  0  0
 29 30  1  0  0  0  0
 29 56  1  0  0  0  0
 30 32  2  0  0  0  0
 31 34  1  0  0  0  0
 31 39  1  0  0  0  0
 32 57  1  0  0  0  0
 33 58  1  0  0  0  0
 33 59  1  0  0  0  0
 33 60  1  0  0  0  0
 34 63  1  0  0  0  0
 35 36  1  0  0  0  0
 35 37  1  0  0  0  0
 35 38  1  0  0  0  0
 36 61  1  0  0  0  0
 36 62  1  0  0  0  0
 37 64  1  0  0  0  0
 37 65  1  0  0  0  0
 37 66  1  0  0  0  0
 38 67  1  0  0  0  0
 38 68  1  0  0  0  0
 38 69  1  0  0  0  0
M  END
> <PUBCHEM_COMPOUND_CID>
134436906

> <PUBCHEM_CONFORMER_RMSD>
1

> <PUBCHEM_CONFORMER_DIVERSEORDER>
3
61
92
94
53
109
80
41
110
104
44
86
29
36
107
106
49
70
50
112
102
95
67
54
81
35
108
73
78
56
87
85
59
103
111
37
91
42
96
90
52
58
105
100
75
69
14
83
93
33
26
20
98
65
38
99
51
30
71
74
76
21
47
32
84
45
62
23
19
82
24
97
55
60
63
72
46
68
66
88
22
15
18
9
79
77
27
13
25
64
7
17
11
43
48
5
101
89
8
4
6
31
39
10
12
28
40
1
16
34
57
2

> <PUBCHEM_MMFF94_PARTIAL_CHARGES>
46
1 -0.36
10 -0.56
11 0.21
12 0.21
14 0.37
15 0.37
16 0.41
17 0.41
18 -0.14
19 -0.15
2 -0.36
20 -0.15
21 0.16
22 -0.15
23 0.16
24 0.03
25 -0.15
26 0.39
27 0.02
28 -0.2
29 -0.15
3 -0.68
30 0.08
31 0.02
32 -0.18
33 0.28
34 0.14
35 0.28
36 0.28
39 0.54
4 -0.69
5 -0.84
50 0.15
51 0.15
52 0.15
53 0.15
54 0.15
55 0.15
56 0.15
57 0.15
6 -0.62
63 0.15
7 -0.62
70 0.4
8 0.6
9 -0.71

> <PUBCHEM_EFFECTIVE_ROTOR_COUNT>
9

> <PUBCHEM_PHARMACOPHORE_FEATURES>
13
1 10 acceptor
1 2 acceptor
1 3 acceptor
1 3 donor
1 4 cation
1 9 acceptor
3 35 37 38 hydrophobe
3 5 6 17 cation
5 8 9 28 31 34 rings
6 6 17 19 22 23 24 rings
6 7 18 20 21 25 26 rings
6 8 27 28 29 30 32 rings
7 4 5 11 12 13 14 15 rings

> <PUBCHEM_HEAVY_ATOM_COUNT>
39

> <PUBCHEM_ATOM_DEF_STEREO_COUNT>
0

> <PUBCHEM_ATOM_UDEF_STEREO_COUNT>
2

> <PUBCHEM_BOND_DEF_STEREO_COUNT>
0

> <PUBCHEM_BOND_UDEF_STEREO_COUNT>
0

> <PUBCHEM_ISOTOPIC_ATOM_COUNT>
0

> <PUBCHEM_COMPONENT_COUNT>
1

> <PUBCHEM_CACTVS_TAUTO_COUNT>
1

> <PUBCHEM_CONFORMER_ID>
0803582A00000003

> <PUBCHEM_MMFF94_ENERGY>
138.2116

> <PUBCHEM_FEATURE_SELFOVERLAP>
66.082

> <PUBCHEM_SHAPE_FINGERPRINT>
10209105 3 18337105774712180379
10258705 36 18413111671180313126
10411042 1 18118398691468494317
117089 54 18335986466624692659
11828532 37 18343309142033003606
12013929 112 18044369427092962005
12144600 37 18411417323834736884
12539747 164 18335425682273889521
1361 4 18338795749030235186
13782708 43 18271803561806076872
14344974 204 18340485694276757383
15152005 77 18126562552172799791
15183329 4 18188210880387753664
15230672 131 18265607697829991834
15347591 1 18411419539774948936
16994733 274 10664102255294700462
19841028 212 18265893559245146210
2026 5 18131064896603512118
20982279 24 17895489123822511931
21130935 74 18343020033817577000
21362857 166 18262240044375313678
21814621 53 18201708566080564096
23569943 247 18051981316960973746
25025965 108 17845638349030125423
44880168 125 17845364608977842167
49967989 163 17240769548784298347
9831232 110 18410008819907593206

> <PUBCHEM_SHAPE_MULTIPOLES>
750.13
30.16
6.68
1.37
25.31
7.17
-0.35
39.95
4.51
-8.47
0.94
1.13
-0.01
6.32

> <PUBCHEM_SHAPE_SELFOVERLAP>
1642.63

> <PUBCHEM_SHAPE_VOLUME>
404.1

> <PUBCHEM_COORDINATE_TYPE>
2
5
10

$$$$
118480924
  -OEChem-11282412143D

 53 57  0     0  0  0  0  0  0999 V2000
    0.6605    0.1671   -1.7208 F   0  0  0  0  0  0  0  0  0  0  0  0
   -7.6571   -1.6956    1.6666 F   0  0  0  0  0  0  0  0  0  0  0  0
   -5.7872    1.4955   -1.3143 F   0  0  0  0  0  0  0  0  0  0  0  0
  -10.4013    0.4700   -1.5208 F   0  0  0  0  0  0  0  0  0  0  0  0
    6.2788    2.3355    0.6048 O   0  0  0  0  0  0  0  0  0  0  0  0
   -3.9601    0.1245   -1.0022 O   0  0  0  0  0  0  0  0  0  0  0  0
    4.0165    2.7816    1.0252 N   0  0  0  0  0  0  0  0  0  0  0  0
    7.2445   -0.8230   -1.4245 N   0  0  0  0  0  0  0  0  0  0  0  0
    7.6017   -0.2481    0.6906 N   0  0  0  0  0  0  0  0  0  0  0  0
   -3.1352   -0.4648    1.1101 N   0  0  0  0  0  0  0  0  0  0  0  0
   -5.4154   -0.3030    0.7777 N   0  0  0  0  0  0  0  0  0  0  0  0
    3.2001    0.6938    0.5683 C   0  0  0  0  0  0  0  0  0  0  0  0
    4.5825    0.6661    0.3776 C   0  0  0  0  0  0  0  0  0  0  0  0
    2.7626    2.0525    0.9943 C   0  0  0  0  0  0  0  0  0  0  0  0
    2.4450   -0.4445    0.3604 C   0  0  0  0  0  0  0  0  0  0  0  0
    5.2598   -0.4700   -0.0195 C   0  0  0  0  0  0  0  0  0  0  0  0
    5.1102    2.0023    0.6694 C   0  0  0  0  0  0  0  0  0  0  0  0
    3.1060   -1.6098   -0.0427 C   0  0  0  0  0  0  0  0  0  0  0  0
    1.0119   -0.4488    0.5492 C   0  0  0  0  0  0  0  0  0  0  0  0
    4.5008   -1.6220   -0.2308 C   0  0  0  0  0  0  0  0  0  0  0  0
    6.6866   -0.5040   -0.2178 C   0  0  0  0  0  0  0  0  0  0  0  0
    0.1631   -0.1386   -0.5134 C   0  0  0  0  0  0  0  0  0  0  0  0
    0.4783   -0.7647    1.7988 C   0  0  0  0  0  0  0  0  0  0  0  0
    8.6018   -0.7668   -1.2761 C   0  0  0  0  0  0  0  0  0  0  0  0
   -1.2192   -0.1439   -0.3264 C   0  0  0  0  0  0  0  0  0  0  0  0
   -0.9039   -0.7697    1.9859 C   0  0  0  0  0  0  0  0  0  0  0  0
   -1.7527   -0.4594    0.9233 C   0  0  0  0  0  0  0  0  0  0  0  0
    8.7977   -0.4102    0.0373 C   0  0  0  0  0  0  0  0  0  0  0  0
    9.5333   -1.0540   -2.3769 C   0  0  0  0  0  0  0  0  0  0  0  0
   -4.1557   -0.1815    0.1697 C   0  0  0  0  0  0  0  0  0  0  0  0
   -6.6880   -0.1059    0.1915 C   0  0  0  0  0  0  0  0  0  0  0  0
   -7.7910   -0.8200    0.6603 C   0  0  0  0  0  0  0  0  0  0  0  0
   -6.8395    0.8029   -0.8558 C   0  0  0  0  0  0  0  0  0  0  0  0
   -9.0452   -0.6252    0.0814 C   0  0  0  0  0  0  0  0  0  0  0  0
   -8.0936    0.9979   -1.4343 C   0  0  0  0  0  0  0  0  0  0  0  0
   -9.1966    0.2838   -0.9656 C   0  0  0  0  0  0  0  0  0  0  0  0
    2.1003    2.5293    0.2673 H   0  0  0  0  0  0  0  0  0  0  0  0
    2.3300    2.0610    1.9978 H   0  0  0  0  0  0  0  0  0  0  0  0
    4.0886    3.7613    1.2808 H   0  0  0  0  0  0  0  0  0  0  0  0
    2.5502   -2.5290   -0.2172 H   0  0  0  0  0  0  0  0  0  0  0  0
    4.9728   -2.5520   -0.5415 H   0  0  0  0  0  0  0  0  0  0  0  0
    1.1257   -1.0085    2.6379 H   0  0  0  0  0  0  0  0  0  0  0  0
    6.7465   -1.0573   -2.2736 H   0  0  0  0  0  0  0  0  0  0  0  0
   -1.8074    0.1070   -1.1973 H   0  0  0  0  0  0  0  0  0  0  0  0
   -1.3060   -1.0174    2.9650 H   0  0  0  0  0  0  0  0  0  0  0  0
    9.7381   -0.2613    0.5481 H   0  0  0  0  0  0  0  0  0  0  0  0
    9.3948   -2.0752   -2.7461 H   0  0  0  0  0  0  0  0  0  0  0  0
   10.5732   -0.9528   -2.0500 H   0  0  0  0  0  0  0  0  0  0  0  0
    9.3741   -0.3622   -3.2104 H   0  0  0  0  0  0  0  0  0  0  0  0
   -3.4490   -0.7004    2.0484 H   0  0  0  0  0  0  0  0  0  0  0  0
   -5.4280   -0.8013    1.6645 H   0  0  0  0  0  0  0  0  0  0  0  0
   -9.9037   -1.1810    0.4462 H   0  0  0  0  0  0  0  0  0  0  0  0
   -8.2115    1.7055   -2.2495 H   0  0  0  0  0  0  0  0  0  0  0  0
  1 22  1  0  0  0  0
  2 32  1  0  0  0  0
  3 33  1  0  0  0  0
  4 36  1  0  0  0  0
  5 17  2  0  0  0  0
  6 30  2  0  0  0  0
  7 14  1  0  0  0  0
  7 17  1  0  0  0  0
  7 39  1  0  0  0  0
  8 21  1  0  0  0  0
  8 24  1  0  0  0  0
  8 43  1  0  0  0  0
  9 21  2  0  0  0  0
  9 28  1  0  0  0  0
 10 27  1  0  0  0  0
 10 30  1  0  0  0  0
 10 50  1  0  0  0  0
 11 30  1  0  0  0  0
 11 31  1  0  0  0  0
 11 51  1  0  0  0  0
 12 13  1  0  0  0  0
 12 14  1  0  0  0  0
 12 15  2  0  0  0  0
 13 16  2  0  0  0  0
 13 17  1  0  0  0  0
 14 37  1  0  0  0  0
 14 38  1  0  0  0  0
 15 18  1  0  0  0  0
 15 19  1  0  0  0  0
 16 20  1  0  0  0  0
 16 21  1  0  0  0  0
 18 20  2  0  0  0  0
 18 40  1  0  0  0  0
 19 22  2  0  0  0  0
 19 23  1  0  0  0  0
 20 41  1  0  0  0  0
 22 25  1  0  0  0  0
 23 26  2  0  0  0  0
 23 42  1  0  0  0  0
 24 28  2  0  0  0  0
 24 29  1  0  0  0  0
 25 27  2  0  0  0  0
 25 44  1  0  0  0  0
 26 27  1  0  0  0  0
 26 45  1  0  0  0  0
 28 46  1  0  0  0  0
 29 47  1  0  0  0  0
 29 48  1  0  0  0  0
 29 49  1  0  0  0  0
 31 32  2  0  0  0  0
 31 33  1  0  0  0  0
 32 34  1  0  0  0  0
 33 35  2  0  0  0  0
 34 36  2  0  0  0  0
 34 52  1  0  0  0  0
 35 36  1  0  0  0  0
 35 53  1  0  0  0  0
M  END
> <PUBCHEM_COMPOUND_CID>
118480924

> <PUBCHEM_CONFORMER_RMSD>
1

> <PUBCHEM_CONFORMER_DIVERSEORDER>
1
44
30
21
25
43
4
40
29
23
38
36
18
32
28
39
9
33
24
2
5
22
46
26
3
11
34
8
31
45
35
16
37
41
42
20
17
10
6
19
14
27
7
13
15
12

> <PUBCHEM_MMFF94_PARTIAL_CHARGES>
46
1 -0.19
10 -0.55
11 -0.55
12 -0.14
13 0.09
14 0.44
16 0.05
17 0.54
18 -0.15
2 -0.19
20 -0.15
21 0.13
22 0.19
23 -0.15
24 -0.33
25 -0.15
26 -0.15
27 0.12
28 0.08
29 0.18
3 -0.19
30 0.69
31 0.12
32 0.19
33 0.19
34 -0.15
35 -0.15
36 0.19
39 0.37
4 -0.19
40 0.15
41 0.15
42 0.15
43 0.27
44 0.15
45 0.15
46 0.15
5 -0.57
50 0.37
51 0.37
52 0.15
53 0.15
6 -0.57
7 -0.73
8 0.03
9 -0.57

> <PUBCHEM_EFFECTIVE_ROTOR_COUNT>
6.4

> <PUBCHEM_PHARMACOPHORE_FEATURES>
12
1 10 donor
1 11 donor
1 5 acceptor
1 6 acceptor
1 7 donor
1 8 donor
3 8 9 21 cation
5 7 12 13 14 17 rings
5 8 9 21 24 28 rings
6 12 13 15 16 18 20 rings
6 19 22 23 25 26 27 rings
6 31 32 33 34 35 36 rings

> <PUBCHEM_HEAVY_ATOM_COUNT>
36

> <PUBCHEM_ATOM_DEF_STEREO_COUNT>
0

> <PUBCHEM_ATOM_UDEF_STEREO_COUNT>
0

> <PUBCHEM_BOND_DEF_STEREO_COUNT>
0

> <PUBCHEM_BOND_UDEF_STEREO_COUNT>
0

> <PUBCHEM_ISOTOPIC_ATOM_COUNT>
0

> <PUBCHEM_COMPONENT_COUNT>
1

> <PUBCHEM_CACTVS_TAUTO_COUNT>
495

> <PUBCHEM_CONFORMER_ID>
070FE01C00000001

> <PUBCHEM_MMFF94_ENERGY>
101.7216

> <PUBCHEM_FEATURE_SELFOVERLAP>
61.035

> <PUBCHEM_SHAPE_FINGERPRINT>
10 15 14562528466829345589
10162869 55 17917988390788638847
10165383 225 17675925392177075738
10299344 5 16343703236172312443
10666366 153 18408325484278889700
11135926 11 17203611471967266175
11386260 185 18341894125801347512
11409948 35 17386559151710382842
11409948 41 17703230599295606494
11607047 141 14851873726919363216
12089408 11 15430035469663242650
12236239 1 16988849372077877674
12522641 33 17676205754108930539
12664476 115 18040148509264457789
12741549 16 18259696793109878132
13811026 1 18410008840665466321
14117953 113 18060144237023780990
14118638 360 18200313212852280019
14251764 18 14851602193963649993
14251764 46 16370727023984909931
14294032 229 16153698817851847047
150020 25 18334856126243612977
15183329 4 17917989482353689609
15247644 1 16630524042976324359
15328684 2 15285900435071896853
15419008 47 18260822696768453789
15461852 350 17748831843329813299
15840311 113 18272366520434134372
15980000 95 15213019353863060639
16728433 110 16773789325294930363
1754911 235 18409441493498470629
18335252 114 18202279225816616800
20105231 36 18272653424766335966
20505436 4 14562531808387944456
21792961 116 17489309664012748387
21792965 169 17918003792531196152
21895431 317 16916230954117109006
23522609 53 16271104738532853585
23576562 1 18265623259403444812
24771293 8 17022904502390078933
249057 3 18273213118680631718
3092352 35 17489870449972721671
335352 9 18273221902748289766
3633792 109 18059859437304422778
4516262 110 17702099382694186952
4625314 4 18341893043442461479
5028188 123 17604154825580319634
5283156 175 16702587125565334186
5758199 1 16443061691153682963
58902169 19 17560511906729453613
59521099 67 17275381032497878824
6081469 158 18334012783344883964
6691757 9 15864078668014405417

> <PUBCHEM_SHAPE_MULTIPOLES>
675.12
34.65
1.68
1.6
35.33
1.12
-0.09
-8.9
13.15
-4.7
0.31
2.19
-0.27
1.63

> <PUBCHEM_SHAPE_SELFOVERLAP>
1521.166

> <PUBCHEM_SHAPE_VOLUME>
356.9

> <PUBCHEM_COORDINATE_TYPE>
2
5
10

$$$$
25115967
  -OEChem-11282412143D

 47 50  0     1  0  0  0  0  0999 V2000
   -2.8167   -4.0955   -2.2879 F   0  0  0  0  0  0  0  0  0  0  0  0
    4.4832   -1.6207    0.6808 O   0  0  0  0  0  0  0  0  0  0  0  0
    1.2353    1.8259   -0.3478 N   0  0  0  0  0  0  0  0  0  0  0  0
   -3.2954    1.0946    1.0196 N   0  0  0  0  0  0  0  0  0  0  0  0
   -1.0038    1.2875    0.4175 N   0  0  0  0  0  0  0  0  0  0  0  0
    0.8673    3.8194   -1.2726 N   0  0  0  0  0  0  0  0  0  0  0  0
    1.3586   -0.3448    0.7262 N   0  0  0  0  0  0  0  0  0  0  0  0
    2.2263   -1.3243    1.0323 N   0  0  0  0  0  0  0  0  0  0  0  0
   -1.8541   -1.9297    0.4555 N   0  0  0  0  0  0  0  0  0  0  0  0
   -4.1156   -1.4260   -0.2069 N   0  0  0  0  0  0  0  0  0  0  0  0
   -0.0972    2.0777   -0.1809 C   0  0  0  0  0  0  0  0  0  0  0  0
   -3.0887   -0.1822    1.6162 C   0  0  1  0  0  0  0  0  0  0  0  0
   -0.3065    3.3207   -0.7620 C   0  0  0  0  0  0  0  0  0  0  0  0
    1.9241    0.7060    0.0654 C   0  0  0  0  0  0  0  0  0  0  0  0
   -2.2439    1.8348    0.4145 C   0  0  0  0  0  0  0  0  0  0  0  0
    1.7707    2.8995   -1.0076 C   0  0  0  0  0  0  0  0  0  0  0  0
   -1.6067    3.8418   -0.7383 C   0  0  0  0  0  0  0  0  0  0  0  0
   -2.5941    3.0665   -0.1298 C   0  0  0  0  0  0  0  0  0  0  0  0
    3.2545    0.3922   -0.0698 C   0  0  0  0  0  0  0  0  0  0  0  0
   -4.1837   -0.4445    2.6479 C   0  0  0  0  0  0  0  0  0  0  0  0
   -3.0144   -1.2525    0.5485 C   0  0  0  0  0  0  0  0  0  0  0  0
    3.3827   -0.8684    0.5435 C   0  0  0  0  0  0  0  0  0  0  0  0
    5.7150   -1.1105    0.1460 C   0  0  0  0  0  0  0  0  0  0  0  0
    6.8742   -1.6090    0.9954 C   0  0  0  0  0  0  0  0  0  0  0  0
    5.8485   -1.5445   -1.3058 C   0  0  0  0  0  0  0  0  0  0  0  0
   -1.8225   -2.8757   -0.5060 C   0  0  0  0  0  0  0  0  0  0  0  0
   -4.0146   -2.3872   -1.1482 C   0  0  0  0  0  0  0  0  0  0  0  0
   -2.8824   -3.1510   -1.3457 C   0  0  0  0  0  0  0  0  0  0  0  0
   -2.1447   -0.1852    2.1782 H   0  0  0  0  0  0  0  0  0  0  0  0
   -4.2364    1.3418    0.7283 H   0  0  0  0  0  0  0  0  0  0  0  0
    2.8168    2.9717   -1.2747 H   0  0  0  0  0  0  0  0  0  0  0  0
   -1.8416    4.8069   -1.1733 H   0  0  0  0  0  0  0  0  0  0  0  0
   -3.6146    3.4363   -0.0902 H   0  0  0  0  0  0  0  0  0  0  0  0
    4.0079    0.9971   -0.5529 H   0  0  0  0  0  0  0  0  0  0  0  0
   -5.1808   -0.4408    2.1921 H   0  0  0  0  0  0  0  0  0  0  0  0
   -4.0421   -1.4183    3.1294 H   0  0  0  0  0  0  0  0  0  0  0  0
   -4.1766    0.3256    3.4275 H   0  0  0  0  0  0  0  0  0  0  0  0
    5.7538   -0.0170    0.2106 H   0  0  0  0  0  0  0  0  0  0  0  0
    0.3913   -0.4647    1.0012 H   0  0  0  0  0  0  0  0  0  0  0  0
    7.8329   -1.2347    0.6239 H   0  0  0  0  0  0  0  0  0  0  0  0
    6.9061   -2.7041    1.0080 H   0  0  0  0  0  0  0  0  0  0  0  0
    6.7514   -1.2867    2.0351 H   0  0  0  0  0  0  0  0  0  0  0  0
    6.7909   -1.1948   -1.7384 H   0  0  0  0  0  0  0  0  0  0  0  0
    5.8105   -2.6363   -1.3905 H   0  0  0  0  0  0  0  0  0  0  0  0
    5.0265   -1.1546   -1.9147 H   0  0  0  0  0  0  0  0  0  0  0  0
   -0.8899   -3.4238   -0.5864 H   0  0  0  0  0  0  0  0  0  0  0  0
   -4.8984   -2.5316   -1.7603 H   0  0  0  0  0  0  0  0  0  0  0  0
  1 28  1  0  0  0  0
  2 22  1  0  0  0  0
  2 23  1  0  0  0  0
  3 11  1  0  0  0  0
  3 14  1  0  0  0  0
  3 16  1  0  0  0  0
  4 12  1  0  0  0  0
  4 15  1  0  0  0  0
  4 30  1  0  0  0  0
  5 11  1  0  0  0  0
  5 15  2  0  0  0  0
  6 13  1  0  0  0  0
  6 16  2  0  0  0  0
  7  8  1  0  0  0  0
  7 14  1  0  0  0  0
  7 39  1  0  0  0  0
  8 22  2  0  0  0  0
  9 21  1  0  0  0  0
  9 26  2  0  0  0  0
 10 21  2  0  0  0  0
 10 27  1  0  0  0  0
 11 13  2  0  0  0  0
 12 20  1  0  0  0  0
 12 21  1  0  0  0  0
 12 29  1  0  0  0  0
 13 17  1  0  0  0  0
 14 19  2  0  0  0  0
 15 18  1  0  0  0  0
 16 31  1  0  0  0  0
 17 18  2  0  0  0  0
 17 32  1  0  0  0  0
 18 33  1  0  0  0  0
 19 22  1  0  0  0  0
 19 34  1  0  0  0  0
 20 35  1  0  0  0  0
 20 36  1  0  0  0  0
 20 37  1  0  0  0  0
 23 24  1  0  0  0  0
 23 25  1  0  0  0  0
 23 38  1  0  0  0  0
 24 40  1  0  0  0  0
 24 41  1  0  0  0  0
 24 42  1  0  0  0  0
 25 43  1  0  0  0  0
 25 44  1  0  0  0  0
 25 45  1  0  0  0  0
 26 28  1  0  0  0  0
 26 46  1  0  0  0  0
 27 28  2  0  0  0  0
 27 47  1  0  0  0  0
M  END
> <PUBCHEM_COMPOUND_CID>
25115967

> <PUBCHEM_CONFORMER_RMSD>
0.8

> <PUBCHEM_CONFORMER_DIVERSEORDER>
1
150
159
27
185
197
196
194
183
119
32
136
173
162
177
6
97
80
189
116
143
171
79
161
129
47
145
138
141
160
100
95
16
58
195
198
73
182
31
142
94
208
50
156
22
113
210
56
192
19
112
180
167
149
124
59
65
3
75
69
60
11
184
190
93
55
117
166
187
30
168
86
111
174
46
158
199
110
204
175
191
10
36
120
179
25
70
172
74
207
78
205
13
23
51
126
133
155
67
38
206
76
39
35
170
49
90
43
188
53
45
87
18
151
52
81
201
144
40
211
29
139
92
147
72
176
203
83
186
102
20
71
178
152
153
134
181
66
64
24
57
8
169
12
77
107
62
104
101
34
61
212
4
89
154
157
125
137
121
108
54
33
193
26
200
37
48
28
114
115
44
130
103
163
164
146
135
5
84
131
128
7
96
118
68
98
99
148
165
2
106
82
63
140
127
15
91
123
105
85
42
122
109
14
209
41
202
21
9
88
17
132

> <PUBCHEM_MMFF94_PARTIAL_CHARGES>
33
1 -0.19
10 -0.62
11 0.11
12 0.51
13 0.23
14 -0.23
15 0.41
16 0.04
17 -0.15
18 -0.15
19 -0.15
2 -0.34
21 0.48
22 0.35
23 0.28
26 0.16
27 0.16
28 0.19
3 0.38
30 0.4
31 0.15
32 0.15
33 0.15
34 0.15
39 0.27
4 -0.87
46 0.15
47 0.15
5 -0.57
6 -0.57
7 0.3
8 -0.71
9 -0.62

> <PUBCHEM_EFFECTIVE_ROTOR_COUNT>
6

> <PUBCHEM_PHARMACOPHORE_FEATURES>
11
1 4 donor
1 7 donor
1 9 acceptor
3 23 24 25 hydrophobe
3 3 6 16 cation
3 4 5 15 cation
3 9 10 21 cation
5 3 6 11 13 16 rings
5 7 8 14 19 22 rings
6 5 11 13 15 17 18 rings
6 9 10 21 26 27 28 rings

> <PUBCHEM_HEAVY_ATOM_COUNT>
28

> <PUBCHEM_ATOM_DEF_STEREO_COUNT>
1

> <PUBCHEM_ATOM_UDEF_STEREO_COUNT>
0

> <PUBCHEM_BOND_DEF_STEREO_COUNT>
0

> <PUBCHEM_BOND_UDEF_STEREO_COUNT>
0

> <PUBCHEM_ISOTOPIC_ATOM_COUNT>
0

> <PUBCHEM_COMPONENT_COUNT>
1

> <PUBCHEM_CACTVS_TAUTO_COUNT>
4

> <PUBCHEM_CONFORMER_ID>
017F3D3F00000001

> <PUBCHEM_MMFF94_ENERGY>
64.7205

> <PUBCHEM_FEATURE_SELFOVERLAP>
55.951

> <PUBCHEM_SHAPE_FINGERPRINT>
10448021 39 17623555854761643311
10483366 6 18194658433963333565
10622 236 17912917572475196327
10871710 139 18263358110241053203
11014199 57 18267021854625557130
11069576 57 17550371278083752351
11135926 11 17829054547379463005
11227688 84 17757012346593299338
11524674 6 17985259677535132437
11552529 35 18273208669278967344
11578080 2 17986659562782550153
12553582 1 18260833721495035970
12633257 1 17846511326158009371
13009979 54 18129953410817813739
13583140 156 14979956947749166298
14114206 34 17458054945938216952
14117953 113 18342176640375636183
14279260 333 17604714340351371378
14674994 50 17916845990002359831
14844126 61 18335978654047545976
15064986 96 17981083844833234715
15629462 23 13985766367152797374
16110190 28 18337968825975933016
19311894 1 18262519307640247482
21796203 349 17901992695854835192
238 59 17036960985356977627
397830 11 18058427895589734130
4017518 198 17986678060863211447
4280585 95 18335688469225168778
44880168 125 17987246534160860550
4573279 73 18262812899214792876
484985 159 18337935814810050847
5080951 261 17971168380138480624
513202 73 18192718843369788882
7471813 234 18336819918155840038

> <PUBCHEM_SHAPE_MULTIPOLES>
523.24
11.29
5.25
1.61
20
2.18
0.23
-10.54
2.19
-4.37
-3.46
-1.55
-1.05
-1.98

> <PUBCHEM_SHAPE_SELFOVERLAP>
1145.054

> <PUBCHEM_SHAPE_VOLUME>
286.9

> <PUBCHEM_COORDINATE_TYPE>
2
5
10

$$$$
71475839
  -OEChem-11282412143D

 66 70  0     0  0  0  0  0  0999 V2000
    6.3057    1.9823    2.2558 F   0  0  0  0  0  0  0  0  0  0  0  0
    6.7749    1.8063    0.1457 F   0  0  0  0  0  0  0  0  0  0  0  0
    5.2688    3.2285    0.8068 F   0  0  0  0  0  0  0  0  0  0  0  0
   -0.1240   -1.2402   -0.0180 O   0  0  0  0  0  0  0  0  0  0  0  0
    7.2342   -0.8546    0.2286 N   0  0  0  0  0  0  0  0  0  0  0  0
    9.3171   -1.9496   -1.4509 N   0  0  0  0  0  0  0  0  0  0  0  0
    1.0667    0.7853    0.0766 N   0  0  0  0  0  0  0  0  0  0  0  0
   -8.4901   -0.6472    0.0210 N   0  0  0  0  0  0  0  0  0  0  0  0
   -7.4426   -1.6556    1.6646 N   0  0  0  0  0  0  0  0  0  0  0  0
   -8.7715   -2.0275    1.7158 N   0  0  0  0  0  0  0  0  0  0  0  0
    8.6405   -0.8372    0.6497 C   0  0  0  0  0  0  0  0  0  0  0  0
    6.9783   -1.9986   -0.6549 C   0  0  0  0  0  0  0  0  0  0  0  0
    9.5736   -0.8068   -0.5657 C   0  0  0  0  0  0  0  0  0  0  0  0
    7.9106   -1.9674   -1.8709 C   0  0  0  0  0  0  0  0  0  0  0  0
    6.3455   -0.8853    1.3886 C   0  0  0  0  0  0  0  0  0  0  0  0
    4.9545   -0.4255    1.0414 C   0  0  0  0  0  0  0  0  0  0  0  0
   10.2051   -1.9169   -2.6113 C   0  0  0  0  0  0  0  0  0  0  0  0
    4.6693    0.9284    0.8652 C   0  0  0  0  0  0  0  0  0  0  0  0
    3.9437   -1.3758    0.8961 C   0  0  0  0  0  0  0  0  0  0  0  0
    3.3736    1.3322    0.5432 C   0  0  0  0  0  0  0  0  0  0  0  0
    2.6480   -0.9722    0.5743 C   0  0  0  0  0  0  0  0  0  0  0  0
    2.3629    0.3818    0.3979 C   0  0  0  0  0  0  0  0  0  0  0  0
    5.7352    1.9638    1.0160 C   0  0  0  0  0  0  0  0  0  0  0  0
   -0.0664   -0.0184   -0.1075 C   0  0  0  0  0  0  0  0  0  0  0  0
   -1.3229    0.7129   -0.4173 C   0  0  0  0  0  0  0  0  0  0  0  0
   -2.5564    0.1572   -0.0773 C   0  0  0  0  0  0  0  0  0  0  0  0
   -1.2682    1.9557   -1.0485 C   0  0  0  0  0  0  0  0  0  0  0  0
   -3.7348    0.8442   -0.3682 C   0  0  0  0  0  0  0  0  0  0  0  0
   -3.6800    2.0869   -0.9992 C   0  0  0  0  0  0  0  0  0  0  0  0
   -2.4466    2.6428   -1.3394 C   0  0  0  0  0  0  0  0  0  0  0  0
   -4.9221    2.8523   -1.3262 C   0  0  0  0  0  0  0  0  0  0  0  0
   -4.9881    0.2533   -0.0098 C   0  0  0  0  0  0  0  0  0  0  0  0
   -7.2924   -0.8337    0.6497 C   0  0  0  0  0  0  0  0  0  0  0  0
   -9.3964   -1.4210    0.7291 C   0  0  0  0  0  0  0  0  0  0  0  0
   -8.8270    0.1228   -1.0848 C   0  0  0  0  0  0  0  0  0  0  0  0
   -6.0401   -0.2429    0.2911 C   0  0  0  0  0  0  0  0  0  0  0  0
  -10.7478   -1.4154    0.2843 C   0  0  0  0  0  0  0  0  0  0  0  0
  -10.1035    0.1274   -1.5038 C   0  0  0  0  0  0  0  0  0  0  0  0
  -11.0875   -0.6724   -0.7876 C   0  0  0  0  0  0  0  0  0  0  0  0
    8.8375    0.0574    1.2530 H   0  0  0  0  0  0  0  0  0  0  0  0
    8.8724   -1.7110    1.2737 H   0  0  0  0  0  0  0  0  0  0  0  0
    7.1080   -2.9486   -0.1186 H   0  0  0  0  0  0  0  0  0  0  0  0
    5.9507   -1.9745   -1.0340 H   0  0  0  0  0  0  0  0  0  0  0  0
    9.4462    0.1422   -1.1043 H   0  0  0  0  0  0  0  0  0  0  0  0
   10.6092   -0.8416   -0.2062 H   0  0  0  0  0  0  0  0  0  0  0  0
    7.7167   -2.8606   -2.4773 H   0  0  0  0  0  0  0  0  0  0  0  0
    7.6763   -1.0928   -2.4931 H   0  0  0  0  0  0  0  0  0  0  0  0
    6.7259   -0.2476    2.1955 H   0  0  0  0  0  0  0  0  0  0  0  0
    6.3179   -1.8886    1.8375 H   0  0  0  0  0  0  0  0  0  0  0  0
   10.0414   -2.7953   -3.2454 H   0  0  0  0  0  0  0  0  0  0  0  0
   11.2533   -1.9495   -2.2941 H   0  0  0  0  0  0  0  0  0  0  0  0
   10.0574   -1.0187   -3.2218 H   0  0  0  0  0  0  0  0  0  0  0  0
    4.1514   -2.4343    1.0300 H   0  0  0  0  0  0  0  0  0  0  0  0
    3.1423    2.3855    0.4037 H   0  0  0  0  0  0  0  0  0  0  0  0
    1.9220   -1.7671    0.4790 H   0  0  0  0  0  0  0  0  0  0  0  0
    0.9549    1.7932    0.0159 H   0  0  0  0  0  0  0  0  0  0  0  0
   -2.6035   -0.8096    0.4200 H   0  0  0  0  0  0  0  0  0  0  0  0
   -0.3348    2.4099   -1.3666 H   0  0  0  0  0  0  0  0  0  0  0  0
   -2.3858    3.6061   -1.8390 H   0  0  0  0  0  0  0  0  0  0  0  0
   -5.5580    2.2794   -2.0095 H   0  0  0  0  0  0  0  0  0  0  0  0
   -5.4832    3.0826   -0.4144 H   0  0  0  0  0  0  0  0  0  0  0  0
   -4.6967    3.8057   -1.8167 H   0  0  0  0  0  0  0  0  0  0  0  0
   -8.0493    0.6959   -1.5744 H   0  0  0  0  0  0  0  0  0  0  0  0
  -11.4874   -2.0075    0.8111 H   0  0  0  0  0  0  0  0  0  0  0  0
  -10.4230    0.7091   -2.3598 H   0  0  0  0  0  0  0  0  0  0  0  0
  -12.1108   -0.6514   -1.1464 H   0  0  0  0  0  0  0  0  0  0  0  0
  1 23  1  0  0  0  0
  2 23  1  0  0  0  0
  3 23  1  0  0  0  0
  4 24  2  0  0  0  0
  5 11  1  0  0  0  0
  5 12  1  0  0  0  0
  5 15  1  0  0  0  0
  6 13  1  0  0  0  0
  6 14  1  0  0  0  0
  6 17  1  0  0  0  0
  7 22  1  0  0  0  0
  7 24  1  0  0  0  0
  7 56  1  0  0  0  0
  8 33  1  0  0  0  0
  8 34  1  0  0  0  0
  8 35  1  0  0  0  0
  9 10  1  0  0  0  0
  9 33  2  0  0  0  0
 10 34  2  0  0  0  0
 11 13  1  0  0  0  0
 11 40  1  0  0  0  0
 11 41  1  0  0  0  0
 12 14  1  0  0  0  0
 12 42  1  0  0  0  0
 12 43  1  0  0  0  0
 13 44  1  0  0  0  0
 13 45  1  0  0  0  0
 14 46  1  0  0  0  0
 14 47  1  0  0  0  0
 15 16  1  0  0  0  0
 15 48  1  0  0  0  0
 15 49  1  0  0  0  0
 16 18  2  0  0  0  0
 16 19  1  0  0  0  0
 17 50  1  0  0  0  0
 17 51  1  0  0  0  0
 17 52  1  0  0  0  0
 18 20  1  0  0  0  0
 18 23  1  0  0  0  0
 19 21  2  0  0  0  0
 19 53  1  0  0  0  0
 20 22  2  0  0  0  0
 20 54  1  0  0  0  0
 21 22  1  0  0  0  0
 21 55  1  0  0  0  0
 24 25  1  0  0  0  0
 25 26  2  0  0  0  0
 25 27  1  0  0  0  0
 26 28  1  0  0  0  0
 26 57  1  0  0  0  0
 27 30  2  0  0  0  0
 27 58  1  0  0  0  0
 28 29  2  0  0  0  0
 28 32  1  0  0  0  0
 29 30  1  0  0  0  0
 29 31  1  0  0  0  0
 30 59  1  0  0  0  0
 31 60  1  0  0  0  0
 31 61  1  0  0  0  0
 31 62  1  0  0  0  0
 32 36  3  0  0  0  0
 33 36  1  0  0  0  0
 34 37  1  0  0  0  0
 35 38  2  0  0  0  0
 35 63  1  0  0  0  0
 37 39  2  0  0  0  0
 37 64  1  0  0  0  0
 38 39  1  0  0  0  0
 38 65  1  0  0  0  0
 39 66  1  0  0  0  0
M  END
> <PUBCHEM_COMPOUND_CID>
71475839

> <PUBCHEM_CONFORMER_RMSD>
1

> <PUBCHEM_CONFORMER_DIVERSEORDER>
1
42
13
24
41
8
7
38
36
22
26
43
23
15
6
10
2
30
9
11
17
16
4
33
14
12
37
5
3
35
20
18
19
40
39
27
29
32
21
25
31
34
28

> <PUBCHEM_MMFF94_PARTIAL_CHARGES>
50
1 -0.34
10 -0.34
11 0.27
12 0.27
13 0.27
14 0.27
15 0.41
16 -0.14
17 0.27
18 -0.14
19 -0.15
2 -0.34
20 -0.15
21 -0.15
22 0.12
23 1.16
24 0.54
25 0.09
26 -0.15
27 -0.15
28 0.07
29 -0.14
3 -0.34
30 -0.15
31 0.14
32 -0.07
33 0.21
34 0.14
35 -0.18
36 -0.02
37 -0.11
38 -0.15
39 -0.15
4 -0.57
5 -0.81
53 0.15
54 0.15
55 0.15
56 0.37
57 0.15
58 0.15
59 0.15
6 -0.81
63 0.15
64 0.15
65 0.15
66 0.15
7 -0.55
8 0.33
9 -0.34

> <PUBCHEM_EFFECTIVE_ROTOR_COUNT>
7.2

> <PUBCHEM_PHARMACOPHORE_FEATURES>
11
1 4 acceptor
1 5 cation
1 6 cation
1 7 donor
3 8 10 34 cation
3 8 9 33 cation
5 8 9 10 33 34 rings
6 16 18 19 20 21 22 rings
6 25 26 27 28 29 30 rings
6 5 6 11 12 13 14 rings
6 8 34 35 37 38 39 rings

> <PUBCHEM_HEAVY_ATOM_COUNT>
39

> <PUBCHEM_ATOM_DEF_STEREO_COUNT>
0

> <PUBCHEM_ATOM_UDEF_STEREO_COUNT>
0

> <PUBCHEM_BOND_DEF_STEREO_COUNT>
0

> <PUBCHEM_BOND_UDEF_STEREO_COUNT>
0

> <PUBCHEM_ISOTOPIC_ATOM_COUNT>
0

> <PUBCHEM_COMPONENT_COUNT>
1

> <PUBCHEM_CACTVS_TAUTO_COUNT>
5

> <PUBCHEM_CONFORMER_ID>
0442A27F00000001

> <PUBCHEM_MMFF94_ENERGY>
93.1718

> <PUBCHEM_FEATURE_SELFOVERLAP>
58.406

> <PUBCHEM_SHAPE_FINGERPRINT>
10677351 14 17530966873607098421
11672396 167 17459737134895588658
12013929 2 18411696570567641105
12202916 173 18040995168632846107
12539745 222 18272653416598459441
12559415 135 15647042752061046285
13165054 160 17918269853761798938
13811026 1 18260825999824202433
14040221 8 15502370115415351005
14344974 52 11602831211657446163
150020 25 18259983786659836083
15064986 266 18337105675732474733
15065858 18 18336820975535394259
15247644 1 17704069612851944623
15461852 350 17385722470352473301
15510794 2 18409165511373487605
15773879 343 17676202468501036947
16067689 302 18412545436146284660
16992752 21 17967253075182596445
19302320 297 13758065320810303234
19841028 212 16805869703192092635
20105231 36 18271528607344303758
2851757 41 17750243664127602147
3092352 35 15985101929641396983
335507 130 18272645744805173558
4625314 4 18409447024994432345
5028188 123 18188496774421478300
5381727 24 13326848938487767477
54583773 228 17530970180515313806
6057620 51 17095523959665030970
6126387 218 18335135402925289233
636775 8 18113905957359393847

> <PUBCHEM_SHAPE_MULTIPOLES>
745.03
43.79
2.66
1.66
33.38
1.56
0.41
-27.52
9.28
-1.01
0.24
-2.78
-0.33
6.26

> <PUBCHEM_SHAPE_SELFOVERLAP>
1625.989

> <PUBCHEM_SHAPE_VOLUME>
407

> <PUBCHEM_COORDINATE_TYPE>
2
5
10

$$$$
46214930
  -OEChem-11282412143D

 52 54  0     0  0  0  0  0  0999 V2000
   -2.0883   -3.4474    1.7000 Cl  0  0  0  0  0  0  0  0  0  0  0  0
   -5.9854   -0.1447   -0.5042 O   0  0  0  0  0  0  0  0  0  0  0  0
   -4.8109   -1.2935   -2.6247 O   0  0  0  0  0  0  0  0  0  0  0  0
    4.5532    0.7974   -0.5241 N   0  0  0  0  0  0  0  0  0  0  0  0
    5.8475    0.4360   -0.5124 N   0  0  0  0  0  0  0  0  0  0  0  0
    2.3170    0.0224   -0.0193 N   0  0  0  0  0  0  0  0  0  0  0  0
   -2.3971   -0.5874    0.6651 N   0  0  0  0  0  0  0  0  0  0  0  0
    1.5348   -2.0594    0.8350 N   0  0  0  0  0  0  0  0  0  0  0  0
   -4.1028   -0.3837   -1.8154 N   0  0  0  0  0  0  0  0  0  0  0  0
    4.1997    2.1215   -0.9843 C   0  0  0  0  0  0  0  0  0  0  0  0
    3.7056   -0.1746   -0.0799 C   0  0  0  0  0  0  0  0  0  0  0  0
    5.1552    2.6123   -2.0747 C   0  0  0  0  0  0  0  0  0  0  0  0
    4.1340    3.1210    0.1731 C   0  0  0  0  0  0  0  0  0  0  0  0
    4.5007   -1.2465    0.2445 C   0  0  0  0  0  0  0  0  0  0  0  0
    5.8093   -0.8134   -0.0419 C   0  0  0  0  0  0  0  0  0  0  0  0
    1.2502   -0.8125    0.3972 C   0  0  0  0  0  0  0  0  0  0  0  0
    7.0606   -1.5719    0.1236 C   0  0  0  0  0  0  0  0  0  0  0  0
   -0.0308   -0.2891    0.3256 C   0  0  0  0  0  0  0  0  0  0  0  0
   -1.0876   -1.0974    0.7295 C   0  0  0  0  0  0  0  0  0  0  0  0
   -2.9205    0.7194    0.7843 C   0  0  0  0  0  0  0  0  0  0  0  0
   -0.8347   -2.3862    1.1862 C   0  0  0  0  0  0  0  0  0  0  0  0
   -4.0839    1.0892    0.1096 C   0  0  0  0  0  0  0  0  0  0  0  0
    0.4821   -2.8158    1.2192 C   0  0  0  0  0  0  0  0  0  0  0  0
   -2.2579    1.6447    1.5907 C   0  0  0  0  0  0  0  0  0  0  0  0
   -4.5847    2.3844    0.2413 C   0  0  0  0  0  0  0  0  0  0  0  0
   -2.7586    2.9400    1.7225 C   0  0  0  0  0  0  0  0  0  0  0  0
   -3.9220    3.3098    1.0477 C   0  0  0  0  0  0  0  0  0  0  0  0
   -4.8002    0.1457   -0.7396 C   0  0  0  0  0  0  0  0  0  0  0  0
   -3.8844   -2.2200   -3.1748 C   0  0  0  0  0  0  0  0  0  0  0  0
    3.2106    2.0553   -1.4509 H   0  0  0  0  0  0  0  0  0  0  0  0
    5.2205    1.8922   -2.8982 H   0  0  0  0  0  0  0  0  0  0  0  0
    4.8012    3.5617   -2.4917 H   0  0  0  0  0  0  0  0  0  0  0  0
    6.1673    2.7815   -1.6900 H   0  0  0  0  0  0  0  0  0  0  0  0
    3.8289    4.1101   -0.1840 H   0  0  0  0  0  0  0  0  0  0  0  0
    3.4113    2.7988    0.9306 H   0  0  0  0  0  0  0  0  0  0  0  0
    5.1071    3.2219    0.6666 H   0  0  0  0  0  0  0  0  0  0  0  0
    4.1924   -2.2060    0.6328 H   0  0  0  0  0  0  0  0  0  0  0  0
    1.9780    0.9432   -0.2877 H   0  0  0  0  0  0  0  0  0  0  0  0
    7.5791   -1.6771   -0.8350 H   0  0  0  0  0  0  0  0  0  0  0  0
    7.7314   -1.0634    0.8238 H   0  0  0  0  0  0  0  0  0  0  0  0
    6.8692   -2.5771    0.5130 H   0  0  0  0  0  0  0  0  0  0  0  0
   -0.1951    0.7118   -0.0613 H   0  0  0  0  0  0  0  0  0  0  0  0
   -3.1056   -1.3055    0.5445 H   0  0  0  0  0  0  0  0  0  0  0  0
    0.7471   -3.8107    1.5644 H   0  0  0  0  0  0  0  0  0  0  0  0
   -1.3645    1.3802    2.1497 H   0  0  0  0  0  0  0  0  0  0  0  0
   -5.4895    2.6871   -0.2797 H   0  0  0  0  0  0  0  0  0  0  0  0
   -2.2461    3.6590    2.3549 H   0  0  0  0  0  0  0  0  0  0  0  0
   -4.3124    4.3180    1.1511 H   0  0  0  0  0  0  0  0  0  0  0  0
   -3.1300   -0.2013   -2.0385 H   0  0  0  0  0  0  0  0  0  0  0  0
   -3.1752   -1.7077   -3.8327 H   0  0  0  0  0  0  0  0  0  0  0  0
   -3.3497   -2.7482   -2.3786 H   0  0  0  0  0  0  0  0  0  0  0  0
   -4.4406   -2.9526   -3.7661 H   0  0  0  0  0  0  0  0  0  0  0  0
  1 21  1  0  0  0  0
  2 28  2  0  0  0  0
  3  9  1  0  0  0  0
  3 29  1  0  0  0  0
  4  5  1  0  0  0  0
  4 10  1  0  0  0  0
  4 11  1  0  0  0  0
  5 15  2  0  0  0  0
  6 11  1  0  0  0  0
  6 16  1  0  0  0  0
  6 38  1  0  0  0  0
  7 19  1  0  0  0  0
  7 20  1  0  0  0  0
  7 43  1  0  0  0  0
  8 16  2  0  0  0  0
  8 23  1  0  0  0  0
  9 28  1  0  0  0  0
  9 49  1  0  0  0  0
 10 12  1  0  0  0  0
 10 13  1  0  0  0  0
 10 30  1  0  0  0  0
 11 14  2  0  0  0  0
 12 31  1  0  0  0  0
 12 32  1  0  0  0  0
 12 33  1  0  0  0  0
 13 34  1  0  0  0  0
 13 35  1  0  0  0  0
 13 36  1  0  0  0  0
 14 15  1  0  0  0  0
 14 37  1  0  0  0  0
 15 17  1  0  0  0  0
 16 18  1  0  0  0  0
 17 39  1  0  0  0  0
 17 40  1  0  0  0  0
 17 41  1  0  0  0  0
 18 19  2  0  0  0  0
 18 42  1  0  0  0  0
 19 21  1  0  0  0  0
 20 22  1  0  0  0  0
 20 24  2  0  0  0  0
 21 23  2  0  0  0  0
 22 25  2  0  0  0  0
 22 28  1  0  0  0  0
 23 44  1  0  0  0  0
 24 26  1  0  0  0  0
 24 45  1  0  0  0  0
 25 27  1  0  0  0  0
 25 46  1  0  0  0  0
 26 27  2  0  0  0  0
 26 47  1  0  0  0  0
 27 48  1  0  0  0  0
 29 50  1  0  0  0  0
 29 51  1  0  0  0  0
 29 52  1  0  0  0  0
M  END
> <PUBCHEM_COMPOUND_CID>
46214930

> <PUBCHEM_CONFORMER_RMSD>
1

> <PUBCHEM_CONFORMER_DIVERSEORDER>
1
12
73
65
37
26
57
62
49
36
14
74
40
41
8
18
20
29
44
47
42
75
48
54
28
72
51
32
27
21
9
11
71
61
17
45
55
33
53
6
16
60
63
70
58
35
52
19
15
39
7
38
59
24
4
43
22
30
69
67
68
3
56
25
34
46
66
10
31
5
64
13
50
23
2

> <PUBCHEM_MMFF94_PARTIAL_CHARGES>
37
1 -0.18
10 0.26
11 -0.07
14 -0.15
15 0.11
16 0.41
17 0.18
18 -0.15
19 0.1
2 -0.57
20 0.1
21 0.18
22 0.09
23 0.16
24 -0.15
25 -0.15
26 -0.15
27 -0.15
28 0.54
29 0.28
3 -0.32
37 0.15
38 0.4
4 0.31
42 0.15
43 0.4
44 0.15
45 0.15
46 0.15
47 0.15
48 0.15
49 0.37
5 -0.71
6 -0.58
7 -0.6
8 -0.62
9 -0.39

> <PUBCHEM_EFFECTIVE_ROTOR_COUNT>
8

> <PUBCHEM_PHARMACOPHORE_FEATURES>
11
1 2 acceptor
1 5 acceptor
1 6 donor
1 7 cation
1 7 donor
1 9 donor
3 10 12 13 hydrophobe
3 6 8 16 cation
5 4 5 11 14 15 rings
6 20 22 24 25 26 27 rings
6 8 16 18 19 21 23 rings

> <PUBCHEM_HEAVY_ATOM_COUNT>
29

> <PUBCHEM_ATOM_DEF_STEREO_COUNT>
0

> <PUBCHEM_ATOM_UDEF_STEREO_COUNT>
0

> <PUBCHEM_BOND_DEF_STEREO_COUNT>
0

> <PUBCHEM_BOND_UDEF_STEREO_COUNT>
0

> <PUBCHEM_ISOTOPIC_ATOM_COUNT>
0

> <PUBCHEM_COMPONENT_COUNT>
1

> <PUBCHEM_CACTVS_TAUTO_COUNT>
115

> <PUBCHEM_CONFORMER_ID>
02C12F1200000001

> <PUBCHEM_MMFF94_ENERGY>
94.1782

> <PUBCHEM_FEATURE_SELFOVERLAP>
55.821

> <PUBCHEM_SHAPE_FINGERPRINT>
10763959 59 17022621949324037276
11049842 53 16624898713502004419
11089746 13 18335140869579724544
12788726 201 18130213884063686595
13103583 49 7997966894818859667
13782708 43 15194987410902296991
14114206 34 18056167307861062823
14767858 380 18411411835235856263
14848178 96 18187932815398518728
15183329 4 18186804643675405834
15461852 350 17704070708067759654
20587220 46 14538845295637274967
21033648 144 18114178679123781292
21033648 29 15936404550624506148
21033650 10 17772780224252744072
23559900 14 18409451401956666418
2838139 119 18335985289819302248
335352 9 18260554394978178854
4015057 19 18410291458224511296
4258327 124 16951989442155679893
474 4 18262243192406921889
5104073 3 17822578313208390240
531348 171 17916869006416100639
59755656 520 18186519895559452627
6328613 192 18115324349372080044
6371009 1 18335693915212422152
77296 10 17489306339771573150

> <PUBCHEM_SHAPE_MULTIPOLES>
557.05
15.61
4.08
2.03
15.14
0.87
-1.79
4.51
-6.22
-0.99
1.26
-3.12
-0.79
-3.84

> <PUBCHEM_SHAPE_SELFOVERLAP>
1174.993

> <PUBCHEM_SHAPE_VOLUME>
314.1

> <PUBCHEM_COORDINATE_TYPE>
2
5
10

$$$$
89884852
  -OEChem-11282412143D

 53 56  0     0  0  0  0  0  0999 V2000
   -6.7573   -0.7965   -1.1194 Cl  0  0  0  0  0  0  0  0  0  0  0  0
   -3.5864   -2.5731   -0.0217 O   0  0  0  0  0  0  0  0  0  0  0  0
   -3.6034    0.8119   -1.3775 O   0  0  0  0  0  0  0  0  0  0  0  0
   -2.6048   -0.6225    0.7497 N   0  0  0  0  0  0  0  0  0  0  0  0
   -3.8056    0.0459    0.7986 N   0  0  0  0  0  0  0  0  0  0  0  0
    6.4413    0.3582   -1.5935 N   0  0  0  0  0  0  0  0  0  0  0  0
    1.2323   -3.8451    0.2960 C   0  0  0  0  0  0  0  0  0  0  0  0
   -1.2637   -2.5995    0.3139 C   0  0  0  0  0  0  0  0  0  0  0  0
    1.1426   -2.4608    0.1492 C   0  0  0  0  0  0  0  0  0  0  0  0
   -5.5215    1.4535   -0.1871 C   0  0  0  0  0  0  0  0  0  0  0  0
   -5.5308    2.7663    0.2841 C   0  0  0  0  0  0  0  0  0  0  0  0
   -0.1054   -1.8381    0.1582 C   0  0  0  0  0  0  0  0  0  0  0  0
    0.0740   -4.6066    0.4515 C   0  0  0  0  0  0  0  0  0  0  0  0
   -1.1740   -3.9837    0.4604 C   0  0  0  0  0  0  0  0  0  0  0  0
    5.9568    1.5727    0.4305 C   0  0  0  0  0  0  0  0  0  0  0  0
    6.7591    1.3144   -0.7005 C   0  0  0  0  0  0  0  0  0  0  0  0
   -2.5655   -1.9509    0.3235 C   0  0  0  0  0  0  0  0  0  0  0  0
   -4.2249    0.7396   -0.3203 C   0  0  0  0  0  0  0  0  0  0  0  0
   -6.7200    0.8263   -0.5277 C   0  0  0  0  0  0  0  0  0  0  0  0
   -6.7386    3.4520    0.4148 C   0  0  0  0  0  0  0  0  0  0  0  0
    4.8014    0.8003    0.6101 C   0  0  0  0  0  0  0  0  0  0  0  0
    2.5526   -4.5469    0.2917 C   0  0  0  0  0  0  0  0  0  0  0  0
    4.4714   -0.1858   -0.3086 C   0  0  0  0  0  0  0  0  0  0  0  0
   -4.2647    3.4665    0.6583 C   0  0  0  0  0  0  0  0  0  0  0  0
    6.3186    2.5788    1.3426 C   0  0  0  0  0  0  0  0  0  0  0  0
   -7.9277    1.5121   -0.3974 C   0  0  0  0  0  0  0  0  0  0  0  0
   -7.9369    2.8249    0.0740 C   0  0  0  0  0  0  0  0  0  0  0  0
    7.9070    2.0818   -0.8781 C   0  0  0  0  0  0  0  0  0  0  0  0
    2.3159   -1.6586   -0.0122 C   0  0  0  0  0  0  0  0  0  0  0  0
    5.3176   -0.3649   -1.3839 C   0  0  0  0  0  0  0  0  0  0  0  0
    7.4719    3.3312    1.1401 C   0  0  0  0  0  0  0  0  0  0  0  0
    8.2670    3.0820    0.0284 C   0  0  0  0  0  0  0  0  0  0  0  0
    3.3014   -0.9852   -0.1476 C   0  0  0  0  0  0  0  0  0  0  0  0
   -0.1516   -0.7613    0.0139 H   0  0  0  0  0  0  0  0  0  0  0  0
    0.1251   -5.6860    0.5681 H   0  0  0  0  0  0  0  0  0  0  0  0
   -2.0642   -4.5944    0.5873 H   0  0  0  0  0  0  0  0  0  0  0  0
   -6.7647    4.4750    0.7808 H   0  0  0  0  0  0  0  0  0  0  0  0
    4.1606    0.9744    1.4731 H   0  0  0  0  0  0  0  0  0  0  0  0
    2.4394   -5.6295    0.4164 H   0  0  0  0  0  0  0  0  0  0  0  0
    3.1801   -4.1904    1.1154 H   0  0  0  0  0  0  0  0  0  0  0  0
    3.0719   -4.3835   -0.6586 H   0  0  0  0  0  0  0  0  0  0  0  0
   -3.7827    2.9638    1.5031 H   0  0  0  0  0  0  0  0  0  0  0  0
   -3.5735    3.4954   -0.1905 H   0  0  0  0  0  0  0  0  0  0  0  0
   -4.4472    4.5043    0.9586 H   0  0  0  0  0  0  0  0  0  0  0  0
    5.7033    2.7820    2.2163 H   0  0  0  0  0  0  0  0  0  0  0  0
   -1.8033   -0.1052    1.0939 H   0  0  0  0  0  0  0  0  0  0  0  0
   -4.3233    0.0023    1.6700 H   0  0  0  0  0  0  0  0  0  0  0  0
   -8.8704    1.0383   -0.6591 H   0  0  0  0  0  0  0  0  0  0  0  0
   -8.8773    3.3587    0.1755 H   0  0  0  0  0  0  0  0  0  0  0  0
    8.5467    1.9063   -1.7411 H   0  0  0  0  0  0  0  0  0  0  0  0
    5.1221   -1.1180   -2.1420 H   0  0  0  0  0  0  0  0  0  0  0  0
    7.7483    4.1077    1.8468 H   0  0  0  0  0  0  0  0  0  0  0  0
    9.1688    3.6641   -0.1373 H   0  0  0  0  0  0  0  0  0  0  0  0
  1 19  1  0  0  0  0
  2 17  2  0  0  0  0
  3 18  2  0  0  0  0
  4  5  1  0  0  0  0
  4 17  1  0  0  0  0
  4 46  1  0  0  0  0
  5 18  1  0  0  0  0
  5 47  1  0  0  0  0
  6 16  1  0  0  0  0
  6 30  2  0  0  0  0
  7  9  2  0  0  0  0
  7 13  1  0  0  0  0
  7 22  1  0  0  0  0
  8 12  2  0  0  0  0
  8 14  1  0  0  0  0
  8 17  1  0  0  0  0
  9 12  1  0  0  0  0
  9 29  1  0  0  0  0
 10 11  2  0  0  0  0
 10 18  1  0  0  0  0
 10 19  1  0  0  0  0
 11 20  1  0  0  0  0
 11 24  1  0  0  0  0
 12 34  1  0  0  0  0
 13 14  2  0  0  0  0
 13 35  1  0  0  0  0
 14 36  1  0  0  0  0
 15 16  1  0  0  0  0
 15 21  1  0  0  0  0
 15 25  2  0  0  0  0
 16 28  2  0  0  0  0
 19 26  2  0  0  0  0
 20 27  2  0  0  0  0
 20 37  1  0  0  0  0
 21 23  2  0  0  0  0
 21 38  1  0  0  0  0
 22 39  1  0  0  0  0
 22 40  1  0  0  0  0
 22 41  1  0  0  0  0
 23 30  1  0  0  0  0
 23 33  1  0  0  0  0
 24 42  1  0  0  0  0
 24 43  1  0  0  0  0
 24 44  1  0  0  0  0
 25 31  1  0  0  0  0
 25 45  1  0  0  0  0
 26 27  1  0  0  0  0
 26 48  1  0  0  0  0
 27 49  1  0  0  0  0
 28 32  1  0  0  0  0
 28 50  1  0  0  0  0
 29 33  3  0  0  0  0
 30 51  1  0  0  0  0
 31 32  2  0  0  0  0
 31 52  1  0  0  0  0
 32 53  1  0  0  0  0
M  END
> <PUBCHEM_COMPOUND_CID>
89884852

> <PUBCHEM_CONFORMER_RMSD>
0.8

> <PUBCHEM_CONFORMER_DIVERSEORDER>
2
13
20
9
18
7
17
11
14
10
4
5
6
1
12
19
16
3
15
8

> <PUBCHEM_MMFF94_PARTIAL_CHARGES>
46
1 -0.18
10 0.09
11 -0.14
12 -0.15
13 -0.15
14 -0.15
16 0.31
17 0.54
18 0.54
19 0.18
2 -0.57
20 -0.15
21 -0.15
22 0.14
23 0.07
24 0.14
25 -0.15
26 -0.15
27 -0.15
28 -0.15
29 -0.07
3 -0.57
30 0.16
31 -0.15
32 -0.15
33 -0.07
34 0.15
35 0.15
36 0.15
37 0.15
38 0.15
4 -0.43
45 0.15
46 0.37
47 0.37
48 0.15
49 0.15
5 -0.43
50 0.15
51 0.15
52 0.15
53 0.15
6 -0.62
7 -0.14
8 0.09
9 0.07

> <PUBCHEM_EFFECTIVE_ROTOR_COUNT>
5

> <PUBCHEM_PHARMACOPHORE_FEATURES>
9
1 2 acceptor
1 3 acceptor
1 4 donor
1 5 donor
1 6 acceptor
6 10 11 19 20 26 27 rings
6 15 16 25 28 31 32 rings
6 6 15 16 21 23 30 rings
6 7 8 9 12 13 14 rings

> <PUBCHEM_HEAVY_ATOM_COUNT>
33

> <PUBCHEM_ATOM_DEF_STEREO_COUNT>
0

> <PUBCHEM_ATOM_UDEF_STEREO_COUNT>
0

> <PUBCHEM_BOND_DEF_STEREO_COUNT>
0

> <PUBCHEM_BOND_UDEF_STEREO_COUNT>
0

> <PUBCHEM_ISOTOPIC_ATOM_COUNT>
0

> <PUBCHEM_COMPONENT_COUNT>
1

> <PUBCHEM_CACTVS_TAUTO_COUNT>
10

> <PUBCHEM_CONFORMER_ID>
055B88B400000002

> <PUBCHEM_MMFF94_ENERGY>
93.7392

> <PUBCHEM_FEATURE_SELFOVERLAP>
47.234

> <PUBCHEM_SHAPE_FINGERPRINT>
10050765 1 18409450250405297251
10055352 69 18271811242214956897
10533779 1 18334845126110630101
10838868 160 18341322336773173561
10864689 126 18412269437299998336
11135609 127 18192987124522658791
11135609 187 18409729526616312441
11297010 23 18201727211404086126
11409948 8 18261125093416028337
11761917 87 11023529360216205429
1200032 147 18187085031766908762
12013929 29 18055076454634796977
12124843 1 17917712387579586836
12522641 68 18201438112106317270
13248334 5 18121497947273403914
1361 87 13254500024664418381
13782708 43 11671768348450622123
14040222 383 18336826510577458432
14223995 32 18339360868543612104
14394314 77 18339929208629125649
14395042 24 17751091413061590699
14565420 104 18261672580253391426
14664723 55 18335997419234766700
14849402 71 18047750390867581443
14931854 50 17846502525817791424
14937079 2 18192150391980324258
15150948 74 18408037403363747637
15152005 290 18409730681598271030
15152005 77 11314303966871214745
15198563 99 17769644635939202383
15347591 1 18409449180583887818
15439362 3 18410014300107508734
15513586 35 16736377484281944260
15684393 108 11887951077777781352
15685185 35 18409449223912582845
15803439 3 17060339643163582630
15980000 95 17473547945992027962
16126227 98 18410013247649558269
16758388 162 18188765047333106066
16993089 31 13325988059812757877
19053607 189 18340193112060237481
19304671 126 18059866017336745156
19309040 13 18272083872947163847
19438510 23 18186521003333571714
20691028 202 18408606989420767340
20982279 24 12246522715414128093
21033648 29 18260833726264990462
21298829 104 18408325475610165349
21424621 283 18410012130425252814
23191077 185 18411127048191501290
23516275 100 18410009910044602452
23522609 53 17487061056029749337
23569914 152 17700154118916992590
23569914 2 16591932146835082741
24204213 29 9771399987036087890
25269216 80 17346305051838079095
2748736 6 18409162203832068240
3918712 181 18410568470524986081
393628 179 18269544095750302464
393628 194 18335983176485111253
406291 66 10087641494174858932
4073 2 18334299730679837139
4112364 45 17894902984722980706
437795 171 18044649802558272109
44249763 50 17702931673613050490
4516262 110 18336537228215094557
4760202 70 18270387323486430333
5219985 13 18408603664910813078
5776283 40 18342453785524808753
6327066 14 18409167727144459478
636775 72 18267303330124201976
6712543 237 14562533972677213857
9849439 229 18408601444391524626

> <PUBCHEM_SHAPE_MULTIPOLES>
654.31
27.14
6.4
1.06
5.24
4.72
0.17
-40.32
3.63
0.76
-1.93
1.01
-0.34
0.43

> <PUBCHEM_SHAPE_SELFOVERLAP>
1432.365

> <PUBCHEM_SHAPE_VOLUME>
353.7

> <PUBCHEM_COORDINATE_TYPE>
2
5
10

$$$$
5330175
  -OEChem-11282412143D

 58 61  0     0  0  0  0  0  0999 V2000
   -4.8563    2.5874   -2.0079 Cl  0  0  0  0  0  0  0  0  0  0  0  0
    3.2676   -0.1000   -0.8191 O   0  0  0  0  0  0  0  0  0  0  0  0
    1.6719    2.1619   -0.5766 O   0  0  0  0  0  0  0  0  0  0  0  0
   -6.4279   -0.9343    2.4279 O   0  0  0  0  0  0  0  0  0  0  0  0
    8.1609    0.0567    0.7392 N   0  0  0  0  0  0  0  0  0  0  0  0
   -0.6123   -2.8466   -1.1058 N   0  0  0  0  0  0  0  0  0  0  0  0
   -3.1016    0.4408   -0.7516 N   0  0  0  0  0  0  0  0  0  0  0  0
   -2.8179   -1.8817   -0.9994 N   0  0  0  0  0  0  0  0  0  0  0  0
    5.2378   -0.0240    0.5300 C   0  0  0  0  0  0  0  0  0  0  0  0
    5.9984   -0.6851    1.6845 C   0  0  0  0  0  0  0  0  0  0  0  0
    6.1478    0.0772   -0.6989 C   0  0  0  0  0  0  0  0  0  0  0  0
    7.3297    0.0206    1.9500 C   0  0  0  0  0  0  0  0  0  0  0  0
    7.4745    0.7572   -0.3545 C   0  0  0  0  0  0  0  0  0  0  0  0
    3.9595   -0.7915    0.2044 C   0  0  0  0  0  0  0  0  0  0  0  0
    9.4500    0.6877    1.0217 C   0  0  0  0  0  0  0  0  0  0  0  0
    1.8987   -0.2057   -0.8280 C   0  0  0  0  0  0  0  0  0  0  0  0
    1.1121    0.9278   -0.7059 C   0  0  0  0  0  0  0  0  0  0  0  0
    1.3200   -1.4657   -0.9614 C   0  0  0  0  0  0  0  0  0  0  0  0
   -0.0635   -1.6258   -0.9764 C   0  0  0  0  0  0  0  0  0  0  0  0
   -0.8580   -0.4743   -0.8524 C   0  0  0  0  0  0  0  0  0  0  0  0
   -0.2732    0.7969   -0.7177 C   0  0  0  0  0  0  0  0  0  0  0  0
   -2.2356   -0.6745   -0.8716 C   0  0  0  0  0  0  0  0  0  0  0  0
   -1.9593   -2.9083   -1.1098 C   0  0  0  0  0  0  0  0  0  0  0  0
    1.9421    2.6165    0.7484 C   0  0  0  0  0  0  0  0  0  0  0  0
   -4.3897    0.5860   -0.2124 C   0  0  0  0  0  0  0  0  0  0  0  0
   -4.7809   -0.2441    0.8441 C   0  0  0  0  0  0  0  0  0  0  0  0
   -5.2891    1.5385   -0.7054 C   0  0  0  0  0  0  0  0  0  0  0  0
   -6.0542   -0.1236    1.4005 C   0  0  0  0  0  0  0  0  0  0  0  0
   -6.5624    1.6591   -0.1490 C   0  0  0  0  0  0  0  0  0  0  0  0
   -6.9450    0.8280    0.9039 C   0  0  0  0  0  0  0  0  0  0  0  0
   -7.7442   -0.7571    2.9492 C   0  0  0  0  0  0  0  0  0  0  0  0
    4.9641    0.9982    0.8253 H   0  0  0  0  0  0  0  0  0  0  0  0
    5.3882   -0.6624    2.5953 H   0  0  0  0  0  0  0  0  0  0  0  0
    6.1864   -1.7421    1.4539 H   0  0  0  0  0  0  0  0  0  0  0  0
    6.3470   -0.9244   -1.1025 H   0  0  0  0  0  0  0  0  0  0  0  0
    5.6546    0.6475   -1.4949 H   0  0  0  0  0  0  0  0  0  0  0  0
    7.1402    1.0350    2.3252 H   0  0  0  0  0  0  0  0  0  0  0  0
    7.8533   -0.5271    2.7431 H   0  0  0  0  0  0  0  0  0  0  0  0
    8.1043    0.7497   -1.2526 H   0  0  0  0  0  0  0  0  0  0  0  0
    7.2926    1.8082   -0.0933 H   0  0  0  0  0  0  0  0  0  0  0  0
    4.1932   -1.8053   -0.1417 H   0  0  0  0  0  0  0  0  0  0  0  0
    3.3424   -0.8694    1.1093 H   0  0  0  0  0  0  0  0  0  0  0  0
    9.9851    0.1366    1.8031 H   0  0  0  0  0  0  0  0  0  0  0  0
    9.3394    1.7283    1.3474 H   0  0  0  0  0  0  0  0  0  0  0  0
   10.0899    0.6705    0.1325 H   0  0  0  0  0  0  0  0  0  0  0  0
    1.9542   -2.3442   -1.0654 H   0  0  0  0  0  0  0  0  0  0  0  0
   -0.8742    1.6966   -0.6142 H   0  0  0  0  0  0  0  0  0  0  0  0
   -2.8269    1.2219   -1.3412 H   0  0  0  0  0  0  0  0  0  0  0  0
   -2.3952   -3.8944   -1.2140 H   0  0  0  0  0  0  0  0  0  0  0  0
    2.4576    3.5784    0.6821 H   0  0  0  0  0  0  0  0  0  0  0  0
    1.0065    2.7574    1.2988 H   0  0  0  0  0  0  0  0  0  0  0  0
    2.5863    1.9099    1.2805 H   0  0  0  0  0  0  0  0  0  0  0  0
   -4.0985   -0.9826    1.2585 H   0  0  0  0  0  0  0  0  0  0  0  0
   -7.2678    2.3959   -0.5252 H   0  0  0  0  0  0  0  0  0  0  0  0
   -7.9482    0.9751    1.2889 H   0  0  0  0  0  0  0  0  0  0  0  0
   -8.5083   -0.9799    2.1969 H   0  0  0  0  0  0  0  0  0  0  0  0
   -7.8716   -1.4832    3.7588 H   0  0  0  0  0  0  0  0  0  0  0  0
   -7.8722    0.2378    3.3891 H   0  0  0  0  0  0  0  0  0  0  0  0
  1 27  1  0  0  0  0
  2 14  1  0  0  0  0
  2 16  1  0  0  0  0
  3 17  1  0  0  0  0
  3 24  1  0  0  0  0
  4 28  1  0  0  0  0
  4 31  1  0  0  0  0
  5 12  1  0  0  0  0
  5 13  1  0  0  0  0
  5 15  1  0  0  0  0
  6 19  1  0  0  0  0
  6 23  2  0  0  0  0
  7 22  1  0  0  0  0
  7 25  1  0  0  0  0
  7 48  1  0  0  0  0
  8 22  2  0  0  0  0
  8 23  1  0  0  0  0
  9 10  1  0  0  0  0
  9 11  1  0  0  0  0
  9 14  1  0  0  0  0
  9 32  1  0  0  0  0
 10 12  1  0  0  0  0
 10 33  1  0  0  0  0
 10 34  1  0  0  0  0
 11 13  1  0  0  0  0
 11 35  1  0  0  0  0
 11 36  1  0  0  0  0
 12 37  1  0  0  0  0
 12 38  1  0  0  0  0
 13 39  1  0  0  0  0
 13 40  1  0  0  0  0
 14 41  1  0  0  0  0
 14 42  1  0  0  0  0
 15 43  1  0  0  0  0
 15 44  1  0  0  0  0
 15 45  1  0  0  0  0
 16 17  2  0  0  0  0
 16 18  1  0  0  0  0
 17 21  1  0  0  0  0
 18 19  2  0  0  0  0
 18 46  1  0  0  0  0
 19 20  1  0  0  0  0
 20 21  2  0  0  0  0
 20 22  1  0  0  0  0
 21 47  1  0  0  0  0
 23 49  1  0  0  0  0
 24 50  1  0  0  0  0
 24 51  1  0  0  0  0
 24 52  1  0  0  0  0
 25 26  1  0  0  0  0
 25 27  2  0  0  0  0
 26 28  2  0  0  0  0
 26 53  1  0  0  0  0
 27 29  1  0  0  0  0
 28 30  1  0  0  0  0
 29 30  2  0  0  0  0
 29 54  1  0  0  0  0
 30 55  1  0  0  0  0
 31 56  1  0  0  0  0
 31 57  1  0  0  0  0
 31 58  1  0  0  0  0
M  END
> <PUBCHEM_COMPOUND_CID>
5330175

> <PUBCHEM_CONFORMER_RMSD>
1

> <PUBCHEM_CONFORMER_DIVERSEORDER>
2
39
129
13
143
123
45
181
69
118
37
203
55
34
142
144
38
111
120
116
177
92
198
205
54
162
164
157
35
108
172
46
102
149
176
95
98
148
150
36
185
104
96
76
156
87
103
48
26
174
201
57
79
189
134
83
50
135
163
33
107
192
194
97
154
19
170
188
140
71
32
161
193
166
114
21
183
94
153
199
100
175
77
101
155
64
169
14
112
20
204
6
78
200
8
125
63
27
89
66
85
90
110
58
17
121
159
130
42
182
25
195
61
138
106
173
88
16
86
109
137
7
152
47
81
24
145
18
160
30
43
126
9
65
178
168
184
28
147
82
51
186
22
190
31
40
10
72
180
187
15
197
5
196
151
133
75
68
41
52
80
60
202
165
84
171
167
12
29
117
62
128
4
136
179
59
49
3
113
23
91
93
141
44
11
119
191
139
74
99
132
73
1
122
124
53
158
105
131
146
70
67
115
127
56

> <PUBCHEM_MMFF94_PARTIAL_CHARGES>
34
1 -0.18
12 0.27
13 0.27
14 0.28
15 0.27
16 0.08
17 0.08
18 -0.15
19 0.31
2 -0.36
21 -0.15
22 0.41
23 0.47
24 0.28
25 0.1
26 -0.15
27 0.18
28 0.08
29 -0.15
3 -0.36
30 -0.15
31 0.28
4 -0.36
46 0.15
47 0.15
48 0.4
49 0.15
5 -0.81
53 0.15
54 0.15
55 0.15
6 -0.62
7 -0.6
8 -0.62

> <PUBCHEM_EFFECTIVE_ROTOR_COUNT>
8.2

> <PUBCHEM_PHARMACOPHORE_FEATURES>
11
1 2 acceptor
1 3 acceptor
1 4 acceptor
1 5 cation
1 7 donor
3 6 8 23 cation
3 7 8 22 cation
6 16 17 18 19 20 21 rings
6 25 26 27 28 29 30 rings
6 5 9 10 11 12 13 rings
6 6 8 19 20 22 23 rings

> <PUBCHEM_HEAVY_ATOM_COUNT>
31

> <PUBCHEM_ATOM_DEF_STEREO_COUNT>
0

> <PUBCHEM_ATOM_UDEF_STEREO_COUNT>
0

> <PUBCHEM_BOND_DEF_STEREO_COUNT>
0

> <PUBCHEM_BOND_UDEF_STEREO_COUNT>
0

> <PUBCHEM_ISOTOPIC_ATOM_COUNT>
0

> <PUBCHEM_COMPONENT_COUNT>
1

> <PUBCHEM_CACTVS_TAUTO_COUNT>
3

> <PUBCHEM_CONFORMER_ID>
005154FF00000002

> <PUBCHEM_MMFF94_ENERGY>
119.8823

> <PUBCHEM_FEATURE_SELFOVERLAP>
55.999

> <PUBCHEM_SHAPE_FINGERPRINT>
10 15 18335420157790353455
10100884 174 16951702483202858075
10299344 5 16443349767073237944
10816530 90 18341623646378511820
11181472 205 15051468085198750938
11456790 92 18040703768065816056
11646440 116 18131356293023124489
12035758 1 18413110558503156357
12838862 33 18270666594127332333
12895837 130 15123791791046650921
13540713 5 18050287260708114958
13673619 4 13406794415589389030
13782708 43 13406790017516048860
13914758 101 14692574308216000650
14020679 6 18186519942624478834
14251764 18 18187363242299208374
14767858 380 9007059071672754512
15352257 5 15864069862687506408
15461852 350 16630234909228606677
15706992 2 16916798408519973594
16994733 274 15051730859249980331
18603816 31 16153712072131342947
19315958 150 18273217483259000158
19841028 212 17024018269499756954
20105231 36 18040437656160898594
2026 5 13479674397692417320
21033648 29 18337959966064783701
21424621 283 16702032941614115131
23576562 1 13613653281727136096
24771293 8 17846498127533948421
2838139 119 15482383235536349667
3178227 256 18410020935124242009
3633792 109 13686308963394540444
4093350 32 16343431618013762598
4339292 15 12829480481033210426
4353968 344 8718565912869732704
4516262 110 16557917702626042017
504579 68 11024110958305182132
5104073 3 18197211658175159810
5385378 56 17988652852260821926
5758199 1 17632861906198067519
58902169 19 14189283877419972328
5969126 39 11746930993063794911
6691757 9 18201151135360551759
7226269 152 17917707993817051633

> <PUBCHEM_SHAPE_MULTIPOLES>
602.3
25.3
2.36
1.97
26.68
0.07
-1.2
-5.7
-17.71
-2.6
1.08
-2.66
0.52
1.78

> <PUBCHEM_SHAPE_SELFOVERLAP>
1284.403

> <PUBCHEM_SHAPE_VOLUME>
336.2

> <PUBCHEM_COORDINATE_TYPE>
2
5
10

$$$$
10437018
  -OEChem-11282412143D

 66 71  0     1  0  0  0  0  0999 V2000
   -8.5403    1.1842   -3.2210 F   0  0  0  0  0  0  0  0  0  0  0  0
   10.0856    2.7510   -0.5203 O   0  0  0  0  0  0  0  0  0  0  0  0
    6.9496    0.0510    0.1822 O   0  0  0  0  0  0  0  0  0  0  0  0
    6.1232   -2.0595   -0.1178 O   0  0  0  0  0  0  0  0  0  0  0  0
   10.6089    0.1548    0.5429 N   0  0  0  0  0  0  0  0  0  0  0  0
    1.8255   -2.2239   -0.4787 N   0  0  0  0  0  0  0  0  0  0  0  0
   -5.9861    0.6934    1.6414 N   0  0  0  0  0  0  0  0  0  0  0  0
   -0.9195    0.2589   -0.4206 N   0  0  0  0  0  0  0  0  0  0  0  0
    4.7223   -0.1850   -0.0214 N   0  0  0  0  0  0  0  0  0  0  0  0
   -6.0524   -0.2914    2.5528 N   0  0  0  0  0  0  0  0  0  0  0  0
    1.1518   -3.3851   -0.6615 N   0  0  0  0  0  0  0  0  0  0  0  0
   -0.8544   -2.0496   -0.6722 N   0  0  0  0  0  0  0  0  0  0  0  0
    9.2399    0.6819    0.4350 C   0  0  1  0  0  0  0  0  0  0  0  0
    9.1504    1.6879   -0.7164 C   0  0  0  0  0  0  0  0  0  0  0  0
   11.5607    1.2595    0.6898 C   0  0  0  0  0  0  0  0  0  0  0  0
    8.2645   -0.4725    0.2291 C   0  0  0  0  0  0  0  0  0  0  0  0
   11.4215    2.2491   -0.4599 C   0  0  0  0  0  0  0  0  0  0  0  0
    1.2217   -0.9962   -0.3904 C   0  0  0  0  0  0  0  0  0  0  0  0
    2.2045   -0.0480   -0.2068 C   0  0  0  0  0  0  0  0  0  0  0  0
    3.4456   -0.7329   -0.1838 C   0  0  0  0  0  0  0  0  0  0  0  0
   -4.7854    0.7742    0.9889 C   0  0  0  0  0  0  0  0  0  0  0  0
   -0.2158   -0.9195   -0.4958 C   0  0  0  0  0  0  0  0  0  0  0  0
   -4.0084   -0.2468    1.5246 C   0  0  0  0  0  0  0  0  0  0  0  0
    3.1822   -2.0753   -0.3541 C   0  0  0  0  0  0  0  0  0  0  0  0
   -2.2160    0.4254    0.0581 C   0  0  0  0  0  0  0  0  0  0  0  0
   -7.1367    1.5437    1.4390 C   0  0  0  0  0  0  0  0  0  0  0  0
   -2.6970   -0.4318    1.0558 C   0  0  0  0  0  0  0  0  0  0  0  0
    5.9294   -0.8557    0.0002 C   0  0  0  0  0  0  0  0  0  0  0  0
   -4.3253    1.6396   -0.0059 C   0  0  0  0  0  0  0  0  0  0  0  0
    2.0299    1.4122   -0.0589 C   0  0  0  0  0  0  0  0  0  0  0  0
   -3.0179    1.4428   -0.4623 C   0  0  0  0  0  0  0  0  0  0  0  0
   -4.8475   -0.8612    2.4787 C   0  0  0  0  0  0  0  0  0  0  0  0
   -8.0494    0.9893    0.3787 C   0  0  0  0  0  0  0  0  0  0  0  0
   -0.1394   -3.2311   -0.7468 C   0  0  0  0  0  0  0  0  0  0  0  0
   -7.8680    1.3508   -0.9563 C   0  0  0  0  0  0  0  0  0  0  0  0
   -9.0773    0.1147    0.7310 C   0  0  0  0  0  0  0  0  0  0  0  0
   -8.7144    0.8373   -1.9389 C   0  0  0  0  0  0  0  0  0  0  0  0
   -9.9236   -0.3987   -0.2516 C   0  0  0  0  0  0  0  0  0  0  0  0
   -9.7422   -0.0374   -1.5866 C   0  0  0  0  0  0  0  0  0  0  0  0
    8.9862    1.1995    1.3698 H   0  0  0  0  0  0  0  0  0  0  0  0
    8.1553    2.1429   -0.7573 H   0  0  0  0  0  0  0  0  0  0  0  0
    9.3367    1.2175   -1.6902 H   0  0  0  0  0  0  0  0  0  0  0  0
   10.8344   -0.3657   -0.3054 H   0  0  0  0  0  0  0  0  0  0  0  0
   11.3780    1.7631    1.6466 H   0  0  0  0  0  0  0  0  0  0  0  0
   12.5796    0.8600    0.7211 H   0  0  0  0  0  0  0  0  0  0  0  0
    8.4821   -1.0025   -0.7069 H   0  0  0  0  0  0  0  0  0  0  0  0
    8.3418   -1.1820    1.0625 H   0  0  0  0  0  0  0  0  0  0  0  0
   11.6849    1.7931   -1.4219 H   0  0  0  0  0  0  0  0  0  0  0  0
   12.0905    3.1011   -0.3026 H   0  0  0  0  0  0  0  0  0  0  0  0
    3.8236   -2.9445   -0.3997 H   0  0  0  0  0  0  0  0  0  0  0  0
   -7.6628    1.6410    2.3969 H   0  0  0  0  0  0  0  0  0  0  0  0
   -6.7906    2.5501    1.1774 H   0  0  0  0  0  0  0  0  0  0  0  0
   -0.4624    1.1221   -0.6958 H   0  0  0  0  0  0  0  0  0  0  0  0
   -2.0831   -1.2123    1.4943 H   0  0  0  0  0  0  0  0  0  0  0  0
    4.7595    0.8235    0.0913 H   0  0  0  0  0  0  0  0  0  0  0  0
   -4.9345    2.4409   -0.4065 H   0  0  0  0  0  0  0  0  0  0  0  0
    1.3018    1.6382    0.7270 H   0  0  0  0  0  0  0  0  0  0  0  0
    1.6799    1.8529   -0.9981 H   0  0  0  0  0  0  0  0  0  0  0  0
    2.9574    1.9221    0.2155 H   0  0  0  0  0  0  0  0  0  0  0  0
   -2.6310    2.1034   -1.2357 H   0  0  0  0  0  0  0  0  0  0  0  0
   -4.6293   -1.7012    3.1229 H   0  0  0  0  0  0  0  0  0  0  0  0
   -0.7470   -4.1389   -0.8957 H   0  0  0  0  0  0  0  0  0  0  0  0
   -7.0825    2.0398   -1.2493 H   0  0  0  0  0  0  0  0  0  0  0  0
   -9.2289   -0.1750    1.7674 H   0  0  0  0  0  0  0  0  0  0  0  0
  -10.7239   -1.0800    0.0226 H   0  0  0  0  0  0  0  0  0  0  0  0
  -10.4010   -0.4370   -2.3519 H   0  0  0  0  0  0  0  0  0  0  0  0
  1 37  1  0  0  0  0
  2 14  1  0  0  0  0
  2 17  1  0  0  0  0
  3 16  1  0  0  0  0
  3 28  1  0  0  0  0
  4 28  2  0  0  0  0
  5 13  1  0  0  0  0
  5 15  1  0  0  0  0
  5 43  1  0  0  0  0
  6 11  1  0  0  0  0
  6 18  1  0  0  0  0
  6 24  1  0  0  0  0
  7 10  1  0  0  0  0
  7 21  1  0  0  0  0
  7 26  1  0  0  0  0
  8 22  1  0  0  0  0
  8 25  1  0  0  0  0
  8 53  1  0  0  0  0
  9 20  1  0  0  0  0
  9 28  1  0  0  0  0
  9 55  1  0  0  0  0
 10 32  2  0  0  0  0
 11 34  2  0  0  0  0
 12 22  2  0  0  0  0
 12 34  1  0  0  0  0
 13 14  1  0  0  0  0
 13 16  1  0  0  0  0
 13 40  1  0  0  0  0
 14 41  1  0  0  0  0
 14 42  1  0  0  0  0
 15 17  1  0  0  0  0
 15 44  1  0  0  0  0
 15 45  1  0  0  0  0
 16 46  1  0  0  0  0
 16 47  1  0  0  0  0
 17 48  1  0  0  0  0
 17 49  1  0  0  0  0
 18 19  2  0  0  0  0
 18 22  1  0  0  0  0
 19 20  1  0  0  0  0
 19 30  1  0  0  0  0
 20 24  2  0  0  0  0
 21 23  2  0  0  0  0
 21 29  1  0  0  0  0
 23 27  1  0  0  0  0
 23 32  1  0  0  0  0
 24 50  1  0  0  0  0
 25 27  2  0  0  0  0
 25 31  1  0  0  0  0
 26 33  1  0  0  0  0
 26 51  1  0  0  0  0
 26 52  1  0  0  0  0
 27 54  1  0  0  0  0
 29 31  2  0  0  0  0
 29 56  1  0  0  0  0
 30 57  1  0  0  0  0
 30 58  1  0  0  0  0
 30 59  1  0  0  0  0
 31 60  1  0  0  0  0
 32 61  1  0  0  0  0
 33 35  2  0  0  0  0
 33 36  1  0  0  0  0
 34 62  1  0  0  0  0
 35 37  1  0  0  0  0
 35 63  1  0  0  0  0
 36 38  2  0  0  0  0
 36 64  1  0  0  0  0
 37 39  2  0  0  0  0
 38 39  1  0  0  0  0
 38 65  1  0  0  0  0
 39 66  1  0  0  0  0
M  END
> <PUBCHEM_COMPOUND_CID>
10437018

> <PUBCHEM_CONFORMER_RMSD>
1.4

> <PUBCHEM_CONFORMER_DIVERSEORDER>
1
55
61
89
30
77
9
54
36
45
100
80
27
94
69
88
38
56
20
64
91
13
19
83
81
66
33
60
32
57
47
22
73
37
79
59
65
42
21
68
98
70
29
49
85
14
4
63
24
40
78
82
11
74
41
39
51
71
93
18
52
95
7
35
26
46
75
6
92
67
96
48
50
44
84
90
97
86
10
25
58
16
17
34
72
62
87
99
53
8
76
2
23
31
12
43
28
15
5
3

> <PUBCHEM_MMFF94_PARTIAL_CHARGES>
51
1 -0.19
10 -0.71
11 -0.65
12 -0.66
13 0.27
14 0.28
15 0.27
16 0.28
17 0.28
18 -0.24
19 -0.18
2 -0.56
20 0.06
21 -0.15
22 0.58
24 -0.3
25 0.1
26 0.4
27 -0.15
28 0.78
29 -0.15
3 -0.43
30 0.18
31 -0.15
32 0.14
33 -0.14
34 0.6
35 -0.15
36 -0.15
37 0.19
38 -0.15
39 -0.15
4 -0.57
43 0.36
5 -0.9
50 0.15
53 0.4
54 0.15
55 0.37
56 0.15
6 0.51
60 0.15
61 0.15
62 0.06
63 0.15
64 0.15
65 0.15
66 0.15
7 0.31
8 -0.55
9 -0.49

> <PUBCHEM_EFFECTIVE_ROTOR_COUNT>
10.2

> <PUBCHEM_PHARMACOPHORE_FEATURES>
15
1 10 acceptor
1 2 acceptor
1 4 acceptor
1 5 cation
1 5 donor
1 8 donor
1 9 donor
3 11 12 34 cation
3 8 12 22 cation
5 6 18 19 20 24 rings
5 7 10 21 23 32 rings
6 2 5 13 14 15 17 rings
6 21 23 25 27 29 31 rings
6 33 35 36 37 38 39 rings
6 6 11 12 18 22 34 rings

> <PUBCHEM_HEAVY_ATOM_COUNT>
39

> <PUBCHEM_ATOM_DEF_STEREO_COUNT>
1

> <PUBCHEM_ATOM_UDEF_STEREO_COUNT>
0

> <PUBCHEM_BOND_DEF_STEREO_COUNT>
0

> <PUBCHEM_BOND_UDEF_STEREO_COUNT>
0

> <PUBCHEM_ISOTOPIC_ATOM_COUNT>
0

> <PUBCHEM_COMPONENT_COUNT>
1

> <PUBCHEM_CACTVS_TAUTO_COUNT>
6

> <PUBCHEM_CONFORMER_ID>
009F419A00000001

> <PUBCHEM_MMFF94_ENERGY>
91.917

> <PUBCHEM_FEATURE_SELFOVERLAP>
76.45

> <PUBCHEM_SHAPE_FINGERPRINT>
10 15 18335141990766753026
10674148 151 14779548997735428009
10930396 42 17167861967764887589
12089408 11 17489591117092557986
12664476 115 18408039615725475208
12741549 16 14996282526958840422
12838862 33 18411696582771775176
13553643 46 17822014207319091868
13740195 50 17967531272798703172
13947947 19 18341613741196853277
14344974 52 15626215841435901946
15065858 18 17676487233052923858
15461852 350 16272207479543563673
15840311 113 18335426738777802574
15890870 6 18342459244860095456
19302320 297 18114750434647090788
19315958 150 18342464725808473582
20105231 36 10879984775245430621
20580484 106 16370721539026791072
21057603 130 18130785686693518695
232437 2 9511462221469842672
24771293 8 18131078103954903569
306946 40 17967527973762738116
3092352 35 16630526216171473758
335352 9 17989205958517952576
395649 100 18273209829564345679
4015057 19 18410300208101840473
4403749 210 18335708277087759691
4516262 110 18411697656329775646
4874694 18 17530966877770203778
5381727 24 17632292337842922934
54039377 194 9727636102620682611
6126387 218 16370724824982623381
6673363 416 16845576409376454369
6691757 9 17560808753589314527
9937071 3 9727635008353529684

> <PUBCHEM_SHAPE_MULTIPOLES>
737.87
43.64
2.49
1.66
65.33
1.4
-0.05
-28.72
4.57
3.97
0.72
-5.86
-0.24
0.47

> <PUBCHEM_SHAPE_SELFOVERLAP>
1625.155

> <PUBCHEM_SHAPE_VOLUME>
397.5

> <PUBCHEM_COORDINATE_TYPE>
2
5
10

$$$$
54755438
  -OEChem-11282412143D

 56 60  0     1  0  0  0  0  0999 V2000
    1.4704   -1.2334   -1.0192 O   0  0  0  0  0  0  0  0  0  0  0  0
    7.4643   -1.6085   -1.1671 O   0  0  0  0  0  0  0  0  0  0  0  0
   -4.9157   -2.2273   -0.1256 O   0  0  0  0  0  0  0  0  0  0  0  0
    2.1650    0.9557   -0.4840 N   0  0  0  0  0  0  0  0  0  0  0  0
    5.4492   -0.5212   -0.8149 N   0  0  0  0  0  0  0  0  0  0  0  0
   -0.0347    0.4493   -0.2022 N   0  0  0  0  0  0  0  0  0  0  0  0
    2.0749    3.2917    0.2671 N   0  0  0  0  0  0  0  0  0  0  0  0
   -0.1151    3.9924    1.0329 N   0  0  0  0  0  0  0  0  0  0  0  0
   -1.9684    2.5090    0.9943 N   0  0  0  0  0  0  0  0  0  0  0  0
    3.5740    0.9085   -0.7810 C   0  0  2  0  0  0  0  0  0  0  0  0
    3.8733    0.5083   -2.2251 C   0  0  0  0  0  0  0  0  0  0  0  0
    4.3164   -0.1499    0.0287 C   0  0  0  0  0  0  0  0  0  0  0  0
    5.3184    0.0398   -2.1513 C   0  0  0  0  0  0  0  0  0  0  0  0
    1.5159    2.1046   -0.0066 C   0  0  0  0  0  0  0  0  0  0  0  0
    1.2285   -0.1054   -0.6104 C   0  0  0  0  0  0  0  0  0  0  0  0
    0.1783    1.7916    0.1763 C   0  0  0  0  0  0  0  0  0  0  0  0
    6.5249   -1.3051   -0.4392 C   0  0  0  0  0  0  0  0  0  0  0  0
   -1.2763   -0.2319   -0.1824 C   0  0  0  0  0  0  0  0  0  0  0  0
   -0.6065    2.7675    0.7323 C   0  0  0  0  0  0  0  0  0  0  0  0
    1.2014    4.1844    0.7741 C   0  0  0  0  0  0  0  0  0  0  0  0
   -2.3419    0.2385   -0.9500 C   0  0  0  0  0  0  0  0  0  0  0  0
   -1.4338   -1.3731    0.6042 C   0  0  0  0  0  0  0  0  0  0  0  0
    6.5350   -1.8056    0.9171 C   0  0  0  0  0  0  0  0  0  0  0  0
   -3.5647   -0.4319   -0.9308 C   0  0  0  0  0  0  0  0  0  0  0  0
   -2.6568   -2.0435    0.6234 C   0  0  0  0  0  0  0  0  0  0  0  0
   -3.7223   -1.5729   -0.1440 C   0  0  0  0  0  0  0  0  0  0  0  0
    6.5433   -2.2211    2.0435 C   0  0  0  0  0  0  0  0  0  0  0  0
    6.5533   -2.7274    3.4152 C   0  0  0  0  0  0  0  0  0  0  0  0
   -6.0661   -1.4648   -0.0112 C   0  0  0  0  0  0  0  0  0  0  0  0
   -6.1268   -0.4293    0.9213 C   0  0  0  0  0  0  0  0  0  0  0  0
   -7.1644   -1.7328   -0.8283 C   0  0  0  0  0  0  0  0  0  0  0  0
   -7.2858    0.3383    1.0367 C   0  0  0  0  0  0  0  0  0  0  0  0
   -8.3233   -0.9651   -0.7131 C   0  0  0  0  0  0  0  0  0  0  0  0
   -8.3839    0.0704    0.2196 C   0  0  0  0  0  0  0  0  0  0  0  0
    4.0314    1.8881   -0.5898 H   0  0  0  0  0  0  0  0  0  0  0  0
    3.7378    1.3350   -2.9292 H   0  0  0  0  0  0  0  0  0  0  0  0
    3.2391   -0.3182   -2.5635 H   0  0  0  0  0  0  0  0  0  0  0  0
    4.6649    0.2388    0.9911 H   0  0  0  0  0  0  0  0  0  0  0  0
    3.7328   -1.0565    0.2177 H   0  0  0  0  0  0  0  0  0  0  0  0
    6.0183    0.8791   -2.2297 H   0  0  0  0  0  0  0  0  0  0  0  0
    5.5712   -0.7033   -2.9133 H   0  0  0  0  0  0  0  0  0  0  0  0
    1.5964    5.1658    1.0084 H   0  0  0  0  0  0  0  0  0  0  0  0
   -2.2301    1.1141   -1.5846 H   0  0  0  0  0  0  0  0  0  0  0  0
   -0.6128   -1.7483    1.2097 H   0  0  0  0  0  0  0  0  0  0  0  0
   -2.2129    1.5942    1.3523 H   0  0  0  0  0  0  0  0  0  0  0  0
   -2.4996    3.2874    1.3678 H   0  0  0  0  0  0  0  0  0  0  0  0
   -4.3689   -0.0579   -1.5590 H   0  0  0  0  0  0  0  0  0  0  0  0
   -2.7740   -2.9311    1.2390 H   0  0  0  0  0  0  0  0  0  0  0  0
    7.0743   -2.0339    4.0821 H   0  0  0  0  0  0  0  0  0  0  0  0
    5.5333   -2.8565    3.7895 H   0  0  0  0  0  0  0  0  0  0  0  0
    7.0599   -3.6957    3.4691 H   0  0  0  0  0  0  0  0  0  0  0  0
   -5.2942   -0.2128    1.5854 H   0  0  0  0  0  0  0  0  0  0  0  0
   -7.1224   -2.5381   -1.5565 H   0  0  0  0  0  0  0  0  0  0  0  0
   -7.3351    1.1415    1.7662 H   0  0  0  0  0  0  0  0  0  0  0  0
   -9.1784   -1.1737   -1.3493 H   0  0  0  0  0  0  0  0  0  0  0  0
   -9.2867    0.6673    0.3102 H   0  0  0  0  0  0  0  0  0  0  0  0
  1 15  2  0  0  0  0
  2 17  2  0  0  0  0
  3 26  1  0  0  0  0
  3 29  1  0  0  0  0
  4 10  1  0  0  0  0
  4 14  1  0  0  0  0
  4 15  1  0  0  0  0
  5 12  1  0  0  0  0
  5 13  1  0  0  0  0
  5 17  1  0  0  0  0
  6 15  1  0  0  0  0
  6 16  1  0  0  0  0
  6 18  1  0  0  0  0
  7 14  2  0  0  0  0
  7 20  1  0  0  0  0
  8 19  1  0  0  0  0
  8 20  2  0  0  0  0
  9 19  1  0  0  0  0
  9 45  1  0  0  0  0
  9 46  1  0  0  0  0
 10 11  1  0  0  0  0
 10 12  1  0  0  0  0
 10 35  1  0  0  0  0
 11 13  1  0  0  0  0
 11 36  1  0  0  0  0
 11 37  1  0  0  0  0
 12 38  1  0  0  0  0
 12 39  1  0  0  0  0
 13 40  1  0  0  0  0
 13 41  1  0  0  0  0
 14 16  1  0  0  0  0
 16 19  2  0  0  0  0
 17 23  1  0  0  0  0
 18 21  2  0  0  0  0
 18 22  1  0  0  0  0
 20 42  1  0  0  0  0
 21 24  1  0  0  0  0
 21 43  1  0  0  0  0
 22 25  2  0  0  0  0
 22 44  1  0  0  0  0
 23 27  3  0  0  0  0
 24 26  2  0  0  0  0
 24 47  1  0  0  0  0
 25 26  1  0  0  0  0
 25 48  1  0  0  0  0
 27 28  1  0  0  0  0
 28 49  1  0  0  0  0
 28 50  1  0  0  0  0
 28 51  1  0  0  0  0
 29 30  2  0  0  0  0
 29 31  1  0  0  0  0
 30 32  1  0  0  0  0
 30 52  1  0  0  0  0
 31 33  2  0  0  0  0
 31 53  1  0  0  0  0
 32 34  2  0  0  0  0
 32 54  1  0  0  0  0
 33 34  1  0  0  0  0
 33 55  1  0  0  0  0
 34 56  1  0  0  0  0
M  END
> <PUBCHEM_COMPOUND_CID>
54755438

> <PUBCHEM_CONFORMER_RMSD>
0.8

> <PUBCHEM_CONFORMER_DIVERSEORDER>
1
159
164
26
139
103
85
44
118
155
38
48
35
123
81
77
133
5
136
99
69
117
20
131
108
127
91
138
93
130
149
83
119
64
10
152
59
158
95
14
42
22
47
142
90
124
41
110
73
92
57
140
40
7
8
55
97
122
147
150
104
137
98
129
146
109
34
58
60
134
71
24
126
51
18
29
45
113
120
114
96
62
143
151
76
43
6
36
25
67
87
144
116
125
4
132
61
54
156
101
12
50
70
163
39
2
32
68
84
31
74
78
28
154
46
105
23
135
72
80
160
121
15
153
52
141
33
53
111
112
27
88
100
11
128
13
19
115
65
30
107
21
86
148
82
94
9
145
162
106
75
157
49
63
161
17
3
102
66
79
16
89
37
56

> <PUBCHEM_MMFF94_PARTIAL_CHARGES>
45
1 -0.57
10 0.3
12 0.3
13 0.3
14 0.43
15 0.69
16 0.12
17 0.74
18 0.12
19 0.41
2 -0.57
20 0.47
21 -0.15
22 -0.15
23 -0.1
24 -0.15
25 -0.15
26 0.08
27 -0.2
28 0.2
29 0.08
3 -0.17
30 -0.15
31 -0.15
32 -0.15
33 -0.15
34 -0.15
4 -0.48
42 0.15
43 0.15
44 0.15
45 0.4
46 0.4
47 0.15
48 0.15
5 -0.66
52 0.15
53 0.15
54 0.15
55 0.15
56 0.15
6 -0.29
7 -0.62
8 -0.62
9 -0.9

> <PUBCHEM_EFFECTIVE_ROTOR_COUNT>
6

> <PUBCHEM_PHARMACOPHORE_FEATURES>
12
1 1 acceptor
1 2 acceptor
1 28 hydrophobe
1 3 acceptor
1 9 cation
1 9 donor
3 7 8 20 cation
5 4 6 14 15 16 rings
5 5 10 11 12 13 rings
6 18 21 22 24 25 26 rings
6 29 30 31 32 33 34 rings
6 7 8 14 16 19 20 rings

> <PUBCHEM_HEAVY_ATOM_COUNT>
34

> <PUBCHEM_ATOM_DEF_STEREO_COUNT>
1

> <PUBCHEM_ATOM_UDEF_STEREO_COUNT>
0

> <PUBCHEM_BOND_DEF_STEREO_COUNT>
0

> <PUBCHEM_BOND_UDEF_STEREO_COUNT>
0

> <PUBCHEM_ISOTOPIC_ATOM_COUNT>
0

> <PUBCHEM_COMPONENT_COUNT>
1

> <PUBCHEM_CACTVS_TAUTO_COUNT>
3

> <PUBCHEM_CONFORMER_ID>
0343806E00000001

> <PUBCHEM_MMFF94_ENERGY>
133.4596

> <PUBCHEM_FEATURE_SELFOVERLAP>
61.005

> <PUBCHEM_SHAPE_FINGERPRINT>
10411042 1 18343588438754127212
11136131 41 17910103952031573417
11297750 10 18409719669144940580
11456790 92 18335989705541483883
12166972 35 18114186349893511900
13150687 139 10087360105708989552
13782708 43 18115303509684480671
14068700 675 18201727253773353889
14117953 113 18059584585088408687
15021287 119 17989208187943375245
15183329 4 18412271653218065831
15420108 30 17482583818442487713
15849732 13 16988850484136674117
16126227 98 7925621177174014534
16728300 4 18117260468493981562
16992610 120 8646481956317475170
19301679 30 18269556036134055150
19841028 212 17676763189951948618
20105231 36 14273459171995724779
20832881 197 18410016576080355753
21344244 181 15213304114431417856
21792934 111 18202278104413349576
21792938 324 17917416619068202193
21792961 116 18334857177782906023
23522609 53 18045251373221343101
23559900 14 18197780106092960161
23569943 247 18114172013504272275
24893992 56 18410860993428453307
249057 3 18059580222124335031
3004659 81 18186804695125323326
3103668 31 18337113346317751445
335352 9 18341900727064926159
4073 2 17974571600206339995
4112364 45 13614229430246881666
4149490 64 17095526236435574112
4258327 124 10951757620850387283
4340502 62 11458695158076851301
439807 62 17749388144209831330
5219985 9 18409729556010962436
5223283 242 15285356198480180022
57527293 21 17416944263112676838
6371380 46 18409169943938356379
6697151 62 18270952557450082713

> <PUBCHEM_SHAPE_MULTIPOLES>
652.21
22.78
3.72
1.8
15.97
3.83
-0.6
-20.05
-1.61
-3.13
-2.47
-4.1
-0.88
-3.32

> <PUBCHEM_SHAPE_SELFOVERLAP>
1433.809

> <PUBCHEM_SHAPE_VOLUME>
347

> <PUBCHEM_COORDINATE_TYPE>
2
5
10

$$$$
44177328
  -OEChem-11282412143D

 37 40  0     0  0  0  0  0  0999 V2000
   -5.0421   -1.6565    0.1949 N   0  0  0  0  0  0  0  0  0  0  0  0
   -0.8918    1.9937    0.4270 N   0  0  0  0  0  0  0  0  0  0  0  0
    1.0435    0.6461    0.2302 N   0  0  0  0  0  0  0  0  0  0  0  0
    2.4575    2.8580   -0.7568 N   0  0  0  0  0  0  0  0  0  0  0  0
    0.5016    4.1838   -0.5475 N   0  0  0  0  0  0  0  0  0  0  0  0
    4.1537   -3.2360    0.3534 N   0  0  0  0  0  0  0  0  0  0  0  0
   -3.0951   -0.8399   -0.5258 C   0  0  0  0  0  0  0  0  0  0  0  0
   -4.1146   -0.6625    0.4119 C   0  0  0  0  0  0  0  0  0  0  0  0
   -1.9796    1.0928    0.4169 C   0  0  0  0  0  0  0  0  0  0  0  0
   -2.0072    0.0555   -0.5224 C   0  0  0  0  0  0  0  0  0  0  0  0
   -4.1003    0.3695    1.3569 C   0  0  0  0  0  0  0  0  0  0  0  0
   -3.0111    1.2455    1.3412 C   0  0  0  0  0  0  0  0  0  0  0  0
   -3.4432   -1.9741   -1.3117 C   0  0  0  0  0  0  0  0  0  0  0  0
   -4.6451   -2.4542   -0.8445 C   0  0  0  0  0  0  0  0  0  0  0  0
    0.4638    1.8532    0.0773 C   0  0  0  0  0  0  0  0  0  0  0  0
    2.3427    0.5644   -0.1191 C   0  0  0  0  0  0  0  0  0  0  0  0
    1.1583    2.9397   -0.4074 C   0  0  0  0  0  0  0  0  0  0  0  0
    2.9591   -0.7281    0.0418 C   0  0  0  0  0  0  0  0  0  0  0  0
    3.0372    1.6509   -0.6038 C   0  0  0  0  0  0  0  0  0  0  0  0
    4.0563   -0.8790    0.8826 C   0  0  0  0  0  0  0  0  0  0  0  0
    2.4584   -1.8297   -0.6431 C   0  0  0  0  0  0  0  0  0  0  0  0
    4.6123   -2.1424    1.0028 C   0  0  0  0  0  0  0  0  0  0  0  0
    3.0857   -3.0506   -0.4547 C   0  0  0  0  0  0  0  0  0  0  0  0
   -1.2148   -0.0667   -1.2554 H   0  0  0  0  0  0  0  0  0  0  0  0
   -4.9029    0.4889    2.0769 H   0  0  0  0  0  0  0  0  0  0  0  0
   -2.9817    2.0538    2.0689 H   0  0  0  0  0  0  0  0  0  0  0  0
   -2.8762   -2.3946   -2.1309 H   0  0  0  0  0  0  0  0  0  0  0  0
   -5.8927   -1.7790    0.7267 H   0  0  0  0  0  0  0  0  0  0  0  0
   -1.0879    2.8626    0.9168 H   0  0  0  0  0  0  0  0  0  0  0  0
   -5.2521   -3.2914   -1.1590 H   0  0  0  0  0  0  0  0  0  0  0  0
    4.0807    1.5999   -0.8936 H   0  0  0  0  0  0  0  0  0  0  0  0
    4.4758   -0.0471    1.4394 H   0  0  0  0  0  0  0  0  0  0  0  0
    1.6055   -1.7540   -1.3103 H   0  0  0  0  0  0  0  0  0  0  0  0
   -0.4945    4.1820   -0.7294 H   0  0  0  0  0  0  0  0  0  0  0  0
    1.0501    4.9539   -0.9100 H   0  0  0  0  0  0  0  0  0  0  0  0
    5.4687   -2.3135    1.6467 H   0  0  0  0  0  0  0  0  0  0  0  0
    2.7342   -3.9406   -0.9663 H   0  0  0  0  0  0  0  0  0  0  0  0
  1  8  1  0  0  0  0
  1 14  1  0  0  0  0
  1 28  1  0  0  0  0
  2  9  1  0  0  0  0
  2 15  1  0  0  0  0
  2 29  1  0  0  0  0
  3 15  2  0  0  0  0
  3 16  1  0  0  0  0
  4 17  2  0  0  0  0
  4 19  1  0  0  0  0
  5 17  1  0  0  0  0
  5 34  1  0  0  0  0
  5 35  1  0  0  0  0
  6 22  2  0  0  0  0
  6 23  1  0  0  0  0
  7  8  2  0  0  0  0
  7 10  1  0  0  0  0
  7 13  1  0  0  0  0
  8 11  1  0  0  0  0
  9 10  2  0  0  0  0
  9 12  1  0  0  0  0
 10 24  1  0  0  0  0
 11 12  2  0  0  0  0
 11 25  1  0  0  0  0
 12 26  1  0  0  0  0
 13 14  2  0  0  0  0
 13 27  1  0  0  0  0
 14 30  1  0  0  0  0
 15 17  1  0  0  0  0
 16 18  1  0  0  0  0
 16 19  2  0  0  0  0
 18 20  2  0  0  0  0
 18 21  1  0  0  0  0
 19 31  1  0  0  0  0
 20 22  1  0  0  0  0
 20 32  1  0  0  0  0
 21 23  2  0  0  0  0
 21 33  1  0  0  0  0
 22 36  1  0  0  0  0
 23 37  1  0  0  0  0
M  END
> <PUBCHEM_COMPOUND_CID>
44177328

> <PUBCHEM_CONFORMER_RMSD>
0.6

> <PUBCHEM_CONFORMER_DIVERSEORDER>
1
50
42
49
16
38
26
17
10
39
48
36
47
3
44
35
13
46
6
27
40
12
45
4
30
37
25
28
22
29
21
43
9
41
18
24
19
23
33
20
34
11
5
2
14
15
31
32
8
7

> <PUBCHEM_MMFF94_PARTIAL_CHARGES>
35
1 0.03
10 -0.15
11 -0.15
12 -0.15
13 -0.15
14 -0.3
15 0.41
16 0.31
17 0.41
19 0.16
2 -0.6
20 -0.15
21 -0.15
22 0.16
23 0.16
24 0.15
25 0.15
26 0.15
27 0.15
28 0.27
29 0.4
3 -0.62
30 0.15
31 0.15
32 0.15
33 0.15
34 0.4
35 0.4
36 0.15
37 0.15
4 -0.62
5 -0.9
6 -0.62
8 -0.15
9 0.1

> <PUBCHEM_EFFECTIVE_ROTOR_COUNT>
3

> <PUBCHEM_PHARMACOPHORE_FEATURES>
11
1 1 cation
1 1 donor
1 2 donor
1 5 donor
1 6 acceptor
3 2 3 15 cation
3 4 5 17 cation
5 1 7 8 13 14 rings
6 3 4 15 16 17 19 rings
6 6 18 20 21 22 23 rings
6 7 8 9 10 11 12 rings

> <PUBCHEM_HEAVY_ATOM_COUNT>
23

> <PUBCHEM_ATOM_DEF_STEREO_COUNT>
0

> <PUBCHEM_ATOM_UDEF_STEREO_COUNT>
0

> <PUBCHEM_BOND_DEF_STEREO_COUNT>
0

> <PUBCHEM_BOND_UDEF_STEREO_COUNT>
0

> <PUBCHEM_ISOTOPIC_ATOM_COUNT>
0

> <PUBCHEM_COMPONENT_COUNT>
1

> <PUBCHEM_CACTVS_TAUTO_COUNT>
6

> <PUBCHEM_CONFORMER_ID>
02A217B000000001

> <PUBCHEM_MMFF94_ENERGY>
83.1359

> <PUBCHEM_FEATURE_SELFOVERLAP>
55.964

> <PUBCHEM_SHAPE_FINGERPRINT>
10042902 136 18271816657773377094
10616163 171 18055924426986116063
10622 236 18057587941056354167
11552529 35 17983570811127891912
11578080 2 18129642180482464585
12107183 9 18268722610730881857
12363563 72 18261118413576324442
12553582 1 18338807706187506342
12633257 1 18342185414577219959
13009979 54 18130797732546950112
13083527 12 18334283267896033480
13257819 101 14925377315822851374
13533116 47 18338518668290585835
138480 1 18410009957451525420
14117953 113 18198624328948737215
14429380 30 18335139761310201810
1454969 45 18409725197589678856
14767858 380 18115890584948875590
14844126 61 17685488750514195586
14848160 33 18333728035181139458
14863182 85 18263925604686565932
15099037 8 18413671322698129561
15250474 111 18199746024167395423
15352361 1 18410852127276231858
15537594 2 18338817635893522490
15842332 3 18199771261284444041
17138139 8 16979268480312424863
17492 89 18411703218438887739
17818456 19 17987253144220790529
1813 80 18187654561145724236
19141452 34 18125723387621978689
19319366 153 17549818232540790349
20291156 8 18339362967922575282
20626108 58 18411127035447952794
20645477 70 18115581690072758377
20775530 9 18412537687275910574
21054139 6 18053948638771386460
21421861 104 18270418173244817919
21452121 199 18334847304180814224
2255824 54 18193844970577348516
229767 44 17910404887810550625
235170 7 15430331208284722794
23559900 14 18339353188603964681
339767 52 18341316813065376931
3421961 26 18410570716813383184
4409770 3 17757828927261488477
5104073 3 18272658978227101915
56633871 153 18126573319053839195
59682541 52 18051945265031423591
6433294 58 18120375612194106939
7064713 232 17631738158069905443
7097593 13 18343590646219299325
7808743 9 10374422727381981530
7970288 3 18335980853145453426
9709674 26 18261960738314960451

> <PUBCHEM_SHAPE_MULTIPOLES>
443.44
10.37
4.32
1.1
4.05
1.54
-0.13
-9.57
-1.54
-3.25
1.04
0.51
-0.1
-2.11

> <PUBCHEM_SHAPE_SELFOVERLAP>
995.309

> <PUBCHEM_SHAPE_VOLUME>
230

> <PUBCHEM_COORDINATE_TYPE>
2
5
10

$$$$
11620908
  -OEChem-11282412143D

 63 66  0     0  0  0  0  0  0999 V2000
   -1.6117    2.7531   -1.5383 Cl  0  0  0  0  0  0  0  0  0  0  0  0
   -6.3515   -0.8202    3.0482 F   0  0  0  0  0  0  0  0  0  0  0  0
   -4.1968   -1.0060    2.8859 F   0  0  0  0  0  0  0  0  0  0  0  0
   -5.1237    0.9600    2.8205 F   0  0  0  0  0  0  0  0  0  0  0  0
    1.6056    4.7931   -1.0264 O   0  0  0  0  0  0  0  0  0  0  0  0
    3.5050    2.6455   -1.3397 O   0  0  0  0  0  0  0  0  0  0  0  0
   -3.4401    0.4353   -2.1084 O   0  0  0  0  0  0  0  0  0  0  0  0
    4.0475   -1.6455    1.2021 N   0  0  0  0  0  0  0  0  0  0  0  0
    4.2784    2.0918    0.7813 N   0  0  0  0  0  0  0  0  0  0  0  0
    1.7444   -1.0265   -0.7142 N   0  0  0  0  0  0  0  0  0  0  0  0
    3.6137   -4.7949   -0.3153 N   0  0  0  0  0  0  0  0  0  0  0  0
    1.9616   -3.3209   -1.3256 N   0  0  0  0  0  0  0  0  0  0  0  0
    2.1042    4.8321    0.3119 C   0  0  0  0  0  0  0  0  0  0  0  0
    3.7554   -0.2334    1.4306 C   0  0  0  0  0  0  0  0  0  0  0  0
    3.5709    4.3661    0.3354 C   0  0  0  0  0  0  0  0  0  0  0  0
    4.5593    0.6972    0.5291 C   0  0  0  0  0  0  0  0  0  0  0  0
    3.4113   -2.4783    0.3177 C   0  0  0  0  0  0  0  0  0  0  0  0
    3.7730    2.9505   -0.1793 C   0  0  0  0  0  0  0  0  0  0  0  0
    4.0076   -3.7309    0.4272 C   0  0  0  0  0  0  0  0  0  0  0  0
    5.0282   -2.3376    1.8673 C   0  0  0  0  0  0  0  0  0  0  0  0
    1.1984    3.9483    1.1709 C   0  0  0  0  0  0  0  0  0  0  0  0
    2.0168    6.2839    0.7955 C   0  0  0  0  0  0  0  0  0  0  0  0
    2.3724   -2.2763   -0.5742 C   0  0  0  0  0  0  0  0  0  0  0  0
    5.0265   -3.6361    1.4060 C   0  0  0  0  0  0  0  0  0  0  0  0
    0.4311   -0.6478   -1.0668 C   0  0  0  0  0  0  0  0  0  0  0  0
    2.5984   -4.5005   -1.1525 C   0  0  0  0  0  0  0  0  0  0  0  0
    0.0860    0.7025   -1.1252 C   0  0  0  0  0  0  0  0  0  0  0  0
   -0.5215   -1.6245   -1.3573 C   0  0  0  0  0  0  0  0  0  0  0  0
   -2.1645    0.0995   -1.7645 C   0  0  0  0  0  0  0  0  0  0  0  0
   -1.2118    1.0761   -1.4741 C   0  0  0  0  0  0  0  0  0  0  0  0
   -1.8193   -1.2507   -1.7061 C   0  0  0  0  0  0  0  0  0  0  0  0
   -4.4650   -0.0285   -1.3026 C   0  0  0  0  0  0  0  0  0  0  0  0
   -4.3535    0.0552    0.0853 C   0  0  0  0  0  0  0  0  0  0  0  0
   -5.3864   -0.4132    0.8974 C   0  0  0  0  0  0  0  0  0  0  0  0
   -5.6094   -0.5804   -1.8783 C   0  0  0  0  0  0  0  0  0  0  0  0
   -6.5308   -0.9651    0.3216 C   0  0  0  0  0  0  0  0  0  0  0  0
   -6.6422   -1.0487   -1.0663 C   0  0  0  0  0  0  0  0  0  0  0  0
   -5.2675   -0.3243    2.3811 C   0  0  0  0  0  0  0  0  0  0  0  0
    2.6764   -0.0662    1.4030 H   0  0  0  0  0  0  0  0  0  0  0  0
    4.0295   -0.0320    2.4758 H   0  0  0  0  0  0  0  0  0  0  0  0
    3.9799    4.4670    1.3477 H   0  0  0  0  0  0  0  0  0  0  0  0
    4.1765    5.0087   -0.3174 H   0  0  0  0  0  0  0  0  0  0  0  0
    4.3891    0.4662   -0.5276 H   0  0  0  0  0  0  0  0  0  0  0  0
    5.6312    0.5587    0.7125 H   0  0  0  0  0  0  0  0  0  0  0  0
    4.4986    2.4501    1.7057 H   0  0  0  0  0  0  0  0  0  0  0  0
    5.6480   -1.8541    2.6105 H   0  0  0  0  0  0  0  0  0  0  0  0
    0.1584    4.2920    1.1293 H   0  0  0  0  0  0  0  0  0  0  0  0
    1.5186    3.9482    2.2181 H   0  0  0  0  0  0  0  0  0  0  0  0
    1.1934    2.9144    0.8163 H   0  0  0  0  0  0  0  0  0  0  0  0
    0.9850    6.6515    0.7529 H   0  0  0  0  0  0  0  0  0  0  0  0
    2.3788    6.3895    1.8235 H   0  0  0  0  0  0  0  0  0  0  0  0
    2.6063    6.9444    0.1495 H   0  0  0  0  0  0  0  0  0  0  0  0
    5.6879   -4.4234    1.7400 H   0  0  0  0  0  0  0  0  0  0  0  0
    0.6837    5.1028   -1.0164 H   0  0  0  0  0  0  0  0  0  0  0  0
    2.3259   -0.2313   -0.4904 H   0  0  0  0  0  0  0  0  0  0  0  0
    2.2449   -5.3189   -1.7700 H   0  0  0  0  0  0  0  0  0  0  0  0
    0.8338    1.4610   -0.9118 H   0  0  0  0  0  0  0  0  0  0  0  0
   -0.3154   -2.6865   -1.3055 H   0  0  0  0  0  0  0  0  0  0  0  0
   -2.5470   -2.0250   -1.9351 H   0  0  0  0  0  0  0  0  0  0  0  0
   -3.4768    0.4977    0.5516 H   0  0  0  0  0  0  0  0  0  0  0  0
   -5.7011   -0.6485   -2.9588 H   0  0  0  0  0  0  0  0  0  0  0  0
   -7.3458   -1.3354    0.9372 H   0  0  0  0  0  0  0  0  0  0  0  0
   -7.5330   -1.4787   -1.5149 H   0  0  0  0  0  0  0  0  0  0  0  0
  1 30  1  0  0  0  0
  2 38  1  0  0  0  0
  3 38  1  0  0  0  0
  4 38  1  0  0  0  0
  5 13  1  0  0  0  0
  5 54  1  0  0  0  0
  6 18  2  0  0  0  0
  7 29  1  0  0  0  0
  7 32  1  0  0  0  0
  8 14  1  0  0  0  0
  8 17  1  0  0  0  0
  8 20  1  0  0  0  0
  9 16  1  0  0  0  0
  9 18  1  0  0  0  0
  9 45  1  0  0  0  0
 10 23  1  0  0  0  0
 10 25  1  0  0  0  0
 10 55  1  0  0  0  0
 11 19  1  0  0  0  0
 11 26  2  0  0  0  0
 12 23  2  0  0  0  0
 12 26  1  0  0  0  0
 13 15  1  0  0  0  0
 13 21  1  0  0  0  0
 13 22  1  0  0  0  0
 14 16  1  0  0  0  0
 14 39  1  0  0  0  0
 14 40  1  0  0  0  0
 15 18  1  0  0  0  0
 15 41  1  0  0  0  0
 15 42  1  0  0  0  0
 16 43  1  0  0  0  0
 16 44  1  0  0  0  0
 17 19  2  0  0  0  0
 17 23  1  0  0  0  0
 19 24  1  0  0  0  0
 20 24  2  0  0  0  0
 20 46  1  0  0  0  0
 21 47  1  0  0  0  0
 21 48  1  0  0  0  0
 21 49  1  0  0  0  0
 22 50  1  0  0  0  0
 22 51  1  0  0  0  0
 22 52  1  0  0  0  0
 24 53  1  0  0  0  0
 25 27  2  0  0  0  0
 25 28  1  0  0  0  0
 26 56  1  0  0  0  0
 27 30  1  0  0  0  0
 27 57  1  0  0  0  0
 28 31  2  0  0  0  0
 28 58  1  0  0  0  0
 29 30  2  0  0  0  0
 29 31  1  0  0  0  0
 31 59  1  0  0  0  0
 32 33  1  0  0  0  0
 32 35  2  0  0  0  0
 33 34  2  0  0  0  0
 33 60  1  0  0  0  0
 34 36  1  0  0  0  0
 34 38  1  0  0  0  0
 35 37  1  0  0  0  0
 35 61  1  0  0  0  0
 36 37  2  0  0  0  0
 36 62  1  0  0  0  0
 37 63  1  0  0  0  0
M  END
> <PUBCHEM_COMPOUND_CID>
11620908

> <PUBCHEM_CONFORMER_RMSD>
1.2

> <PUBCHEM_CONFORMER_DIVERSEORDER>
1
94
37
181
79
83
162
198
172
205
91
160
220
46
128
129
145
61
49
173
197
123
232
33
151
210
136
132
68
82
163
47
138
168
73
99
199
238
180
42
116
104
117
146
114
38
175
119
139
48
144
192
239
217
229
53
244
182
245
171
208
235
59
40
170
113
100
223
204
130
90
44
233
51
183
17
147
149
36
85
89
62
174
242
167
121
178
165
78
203
201
186
134
96
107
64
55
98
11
122
5
240
195
140
169
86
207
3
157
158
164
57
176
110
111
131
120
126
222
115
25
179
143
234
184
216
77
16
191
212
156
45
224
63
26
43
209
190
35
152
20
148
231
218
241
196
135
202
81
92
39
161
226
185
188
88
215
159
194
12
213
7
108
214
118
206
112
124
211
246
4
97
71
22
133
69
32
50
24
227
41
28
87
84
189
8
30
193
200
105
243
14
60
56
80
67
75
10
142
127
29
225
54
6
219
153
70
221
31
155
65
15
93
237
137
101
228
23
154
9
58
236
76
34
102
13
106
52
27
166
109
19
103
72
141
125
150
177
74
187
18
230
95
21
2
66

> <PUBCHEM_MMFF94_PARTIAL_CHARGES>
49
1 -0.18
10 -0.6
11 -0.57
12 -0.62
13 0.28
14 0.26
15 0.06
16 0.3
17 -0.15
18 0.57
19 0.26
2 -0.34
20 -0.3
23 0.41
24 -0.15
25 0.1
26 0.47
27 -0.15
28 -0.15
29 0.08
3 -0.34
30 0.18
31 -0.15
32 0.08
33 -0.15
34 -0.14
35 -0.15
36 -0.15
37 -0.15
38 1.16
4 -0.34
45 0.37
46 0.15
5 -0.68
53 0.15
54 0.4
55 0.4
56 0.15
57 0.15
58 0.15
59 0.15
6 -0.57
60 0.15
61 0.15
62 0.15
63 0.15
7 -0.17
8 0.05
9 -0.73

> <PUBCHEM_EFFECTIVE_ROTOR_COUNT>
11

> <PUBCHEM_PHARMACOPHORE_FEATURES>
14
1 10 donor
1 5 acceptor
1 5 donor
1 6 acceptor
1 7 acceptor
1 8 cation
1 9 donor
3 10 12 23 cation
3 11 12 26 cation
3 13 21 22 hydrophobe
5 8 17 19 20 24 rings
6 11 12 17 19 23 26 rings
6 25 27 28 29 30 31 rings
6 32 33 34 35 36 37 rings

> <PUBCHEM_HEAVY_ATOM_COUNT>
38

> <PUBCHEM_ATOM_DEF_STEREO_COUNT>
0

> <PUBCHEM_ATOM_UDEF_STEREO_COUNT>
0

> <PUBCHEM_BOND_DEF_STEREO_COUNT>
0

> <PUBCHEM_BOND_UDEF_STEREO_COUNT>
0

> <PUBCHEM_ISOTOPIC_ATOM_COUNT>
0

> <PUBCHEM_COMPONENT_COUNT>
1

> <PUBCHEM_CACTVS_TAUTO_COUNT>
6

> <PUBCHEM_CONFORMER_ID>
00B1522C00000001

> <PUBCHEM_MMFF94_ENERGY>
100.3905

> <PUBCHEM_FEATURE_SELFOVERLAP>
71.279

> <PUBCHEM_SHAPE_FINGERPRINT>
11014199 57 18051965923454708260
11488393 25 18335699455303463361
12440605 4 17907282601110553831
14790565 3 17907002238445437710
15351339 4 13877422324717288678
16096371 109 18264770037906133845
161222 619 18261392312056820618
19319366 153 18055625368149953884
19611394 137 18187642471393781938
21792938 324 18193289490411000593
21792965 131 17329147383250834727
21796203 349 18338532853855648254
22440779 20 16972850167159331975
394071 54 18341897410886157638
4015057 19 18050255151865543333
4435113 14 17968089816179164325
86090 222 17458349632450797139

> <PUBCHEM_SHAPE_MULTIPOLES>
719.56
15.02
7.55
2.43
21.42
8.47
-1.62
-8.09
-7.65
-16.58
-0.21
4.07
-0.52
-0.23

> <PUBCHEM_SHAPE_SELFOVERLAP>
1547.337

> <PUBCHEM_SHAPE_VOLUME>
400.4

> <PUBCHEM_COORDINATE_TYPE>
2
5
10

$$$$
137455315
  -OEChem-11282412143D

 50 53  0     1  0  0  0  0  0999 V2000
    4.3437   -0.5532   -2.4874 F   0  0  0  0  0  0  0  0  0  0  0  0
    0.5445   -2.2694    1.1393 O   0  0  0  0  0  0  0  0  0  0  0  0
   -3.7974   -2.1521   -0.4582 O   0  0  0  0  0  0  0  0  0  0  0  0
    1.2788    1.6535    1.1023 N   0  0  0  0  0  0  0  0  0  0  0  0
   -2.4517    2.1873   -0.6320 N   0  0  0  0  0  0  0  0  0  0  0  0
   -2.1744   -1.6164    1.1094 N   0  0  0  0  0  0  0  0  0  0  0  0
   -0.8165    0.8228    0.4579 N   0  0  0  0  0  0  0  0  0  0  0  0
   -3.6934    2.0938   -1.1740 N   0  0  0  0  0  0  0  0  0  0  0  0
   -5.2297    0.2790   -1.3741 N   0  0  0  0  0  0  0  0  0  0  0  0
    4.3844    2.0312   -0.2401 N   0  0  0  0  0  0  0  0  0  0  0  0
    1.7186    0.3142    1.5515 C   0  0  0  0  0  0  0  0  0  0  0  0
    2.0627   -0.5975    0.3856 C   0  0  0  0  0  0  0  0  0  0  0  0
   -0.4142   -3.2849    0.7829 C   0  0  2  0  0  0  0  0  0  0  0  0
    0.0080    1.8462    0.5255 C   0  0  0  0  0  0  0  0  0  0  0  0
    2.2269    2.7479    1.2920 C   0  0  0  0  0  0  0  0  0  0  0  0
    1.4521   -1.8578    0.1923 C   0  0  0  0  0  0  0  0  0  0  0  0
   -1.7394   -2.9475    1.4866 C   0  0  0  0  0  0  0  0  0  0  0  0
   -2.0428    0.9760   -0.1030 C   0  0  0  0  0  0  0  0  0  0  0  0
   -3.0726    0.0741   -0.2920 C   0  0  0  0  0  0  0  0  0  0  0  0
    3.0467   -0.1721   -0.5272 C   0  0  0  0  0  0  0  0  0  0  0  0
   -0.4052    3.2020   -0.0124 C   0  0  0  0  0  0  0  0  0  0  0  0
    0.0846   -4.6435    1.2693 C   0  0  0  0  0  0  0  0  0  0  0  0
   -3.0729   -1.3296    0.0936 C   0  0  0  0  0  0  0  0  0  0  0  0
   -1.6179    3.2950   -0.5708 C   0  0  0  0  0  0  0  0  0  0  0  0
   -4.0478    0.8220   -0.9785 C   0  0  0  0  0  0  0  0  0  0  0  0
    1.8281   -2.6404   -0.9091 C   0  0  0  0  0  0  0  0  0  0  0  0
    1.6162    3.8211    2.1726 C   0  0  0  0  0  0  0  0  0  0  0  0
    3.4033   -0.9577   -1.6207 C   0  0  0  0  0  0  0  0  0  0  0  0
    2.7915   -2.1891   -1.8124 C   0  0  0  0  0  0  0  0  0  0  0  0
    3.7858    1.0453   -0.3687 C   0  0  0  0  0  0  0  0  0  0  0  0
    0.9292   -0.1186    2.1767 H   0  0  0  0  0  0  0  0  0  0  0  0
    2.5923    0.3782    2.2129 H   0  0  0  0  0  0  0  0  0  0  0  0
   -0.6056   -3.2965   -0.2972 H   0  0  0  0  0  0  0  0  0  0  0  0
    3.1393    2.4230    1.8011 H   0  0  0  0  0  0  0  0  0  0  0  0
    2.4541    3.2276    0.3365 H   0  0  0  0  0  0  0  0  0  0  0  0
   -2.5155   -3.6755    1.2293 H   0  0  0  0  0  0  0  0  0  0  0  0
   -1.6092   -2.9293    2.5740 H   0  0  0  0  0  0  0  0  0  0  0  0
    0.2789    4.0335   -0.0838 H   0  0  0  0  0  0  0  0  0  0  0  0
   -1.6882   -0.8539    1.5711 H   0  0  0  0  0  0  0  0  0  0  0  0
    0.2539   -4.6313    2.3519 H   0  0  0  0  0  0  0  0  0  0  0  0
   -0.6360   -5.4340    1.0377 H   0  0  0  0  0  0  0  0  0  0  0  0
    1.0428   -4.9060    0.8115 H   0  0  0  0  0  0  0  0  0  0  0  0
   -1.9773    4.2099   -1.0264 H   0  0  0  0  0  0  0  0  0  0  0  0
    1.4019   -3.6222   -1.0888 H   0  0  0  0  0  0  0  0  0  0  0  0
    0.7299    4.3368    1.8147 H   0  0  0  0  0  0  0  0  0  0  0  0
    1.3508    3.3943    3.1477 H   0  0  0  0  0  0  0  0  0  0  0  0
    2.3659    4.5990    2.3597 H   0  0  0  0  0  0  0  0  0  0  0  0
    3.0729   -2.8093   -2.6585 H   0  0  0  0  0  0  0  0  0  0  0  0
   -5.4771   -0.6915   -1.2065 H   0  0  0  0  0  0  0  0  0  0  0  0
   -5.9322    0.8250   -1.8631 H   0  0  0  0  0  0  0  0  0  0  0  0
  1 28  1  0  0  0  0
  2 13  1  0  0  0  0
  2 16  1  0  0  0  0
  3 23  2  0  0  0  0
  4 11  1  0  0  0  0
  4 14  1  0  0  0  0
  4 15  1  0  0  0  0
  5  8  1  0  0  0  0
  5 18  1  0  0  0  0
  5 24  1  0  0  0  0
  6 17  1  0  0  0  0
  6 23  1  0  0  0  0
  6 39  1  0  0  0  0
  7 14  2  0  0  0  0
  7 18  1  0  0  0  0
  8 25  2  0  0  0  0
  9 25  1  0  0  0  0
  9 49  1  0  0  0  0
  9 50  1  0  0  0  0
 10 30  3  0  0  0  0
 11 12  1  0  0  0  0
 11 31  1  0  0  0  0
 11 32  1  0  0  0  0
 12 16  2  0  0  0  0
 12 20  1  0  0  0  0
 13 17  1  0  0  0  0
 13 22  1  0  0  0  0
 13 33  1  0  0  0  0
 14 21  1  0  0  0  0
 15 27  1  0  0  0  0
 15 34  1  0  0  0  0
 15 35  1  0  0  0  0
 16 26  1  0  0  0  0
 17 36  1  0  0  0  0
 17 37  1  0  0  0  0
 18 19  2  0  0  0  0
 19 23  1  0  0  0  0
 19 25  1  0  0  0  0
 20 28  2  0  0  0  0
 20 30  1  0  0  0  0
 21 24  2  0  0  0  0
 21 38  1  0  0  0  0
 22 40  1  0  0  0  0
 22 41  1  0  0  0  0
 22 42  1  0  0  0  0
 24 43  1  0  0  0  0
 26 29  2  0  0  0  0
 26 44  1  0  0  0  0
 27 45  1  0  0  0  0
 27 46  1  0  0  0  0
 27 47  1  0  0  0  0
 28 29  1  0  0  0  0
 29 48  1  0  0  0  0
M  END
> <PUBCHEM_COMPOUND_CID>
137455315

> <PUBCHEM_CONFORMER_RMSD>
0.6

> <PUBCHEM_CONFORMER_DIVERSEORDER>
1
4
2
3

> <PUBCHEM_MMFF94_PARTIAL_CHARGES>
35
1 -0.19
10 -0.56
11 0.51
12 -0.14
13 0.28
14 0.49
15 0.37
16 0.08
17 0.3
18 -0.03
19 -0.09
2 -0.36
20 0.07
21 -0.14
23 0.72
24 -0.18
25 0.37
26 -0.15
28 0.19
29 -0.15
3 -0.57
30 0.48
38 0.15
39 0.37
4 -0.79
43 0.15
44 0.15
48 0.15
49 0.4
5 0.6
50 0.4
6 -0.73
7 -0.58
8 -0.71
9 -0.88

> <PUBCHEM_EFFECTIVE_ROTOR_COUNT>
2.2

> <PUBCHEM_PHARMACOPHORE_FEATURES>
10
1 10 acceptor
1 2 acceptor
1 3 acceptor
1 6 donor
1 9 donor
3 4 7 14 cation
3 8 9 25 cation
5 5 8 18 19 25 rings
6 12 16 20 26 28 29 rings
6 5 7 14 18 21 24 rings

> <PUBCHEM_HEAVY_ATOM_COUNT>
30

> <PUBCHEM_ATOM_DEF_STEREO_COUNT>
1

> <PUBCHEM_ATOM_UDEF_STEREO_COUNT>
0

> <PUBCHEM_BOND_DEF_STEREO_COUNT>
0

> <PUBCHEM_BOND_UDEF_STEREO_COUNT>
0

> <PUBCHEM_ISOTOPIC_ATOM_COUNT>
0

> <PUBCHEM_COMPONENT_COUNT>
1

> <PUBCHEM_CACTVS_TAUTO_COUNT>
-1

> <PUBCHEM_CONFORMER_ID>
083166D300000001

> <PUBCHEM_MMFF94_ENERGY>
94.8151

> <PUBCHEM_FEATURE_SELFOVERLAP>
50.87

> <PUBCHEM_SHAPE_FINGERPRINT>
10498660 4 18333733503038471895
10675989 125 17973708195837781165
108634 29 18410581720973406294
1100329 8 17113524923538176417
11370993 70 18187645773568861718
11640471 11 16588026813938287234
12156800 1 12193573171915879651
12553582 1 18127978503055373465
12788726 201 17336468540678203945
13122387 1 18265614290773212815
13140716 1 18338499920468240801
13402501 40 18339080522193526440
1361 2 17767674319987073607
13617811 41 17967810536384605317
14114211 68 17827389612208040903
144659 178 17975123241896519362
14725015 67 18264757925961086019
14790565 3 17835523722417405253
14930077 153 16673328313919151044
14931854 50 18193562159749245383
15420108 30 15746982165177037633
15635459 17 18272363174680451805
18336668 15 17392747082127530250
20609170 92 18197239125562631356
20764821 26 18335972117160146587
20775438 99 17984109786532533383
21141583 151 18341339902814601050
22113638 7 16535095997859693901
22182313 1 18194688295900179842
22907989 373 17691740780146752502
23536364 44 17981354225688302326
23559900 14 18268422439328592380
238 59 18200574995187433158
238918 7 17911790581635538960
2748010 2 18122906692150031216
3493558 16 15582326888744846732
4280585 95 17693096267473023286
4409770 3 18190767330605381482
484985 159 13465921516555741462
57527358 35 15719686436650403090
6287921 2 17116665652269339538
9709674 26 18341610361041935773
9862522 239 17192617716893361200

> <PUBCHEM_SHAPE_MULTIPOLES>
563.51
7.41
5.36
1.76
2.89
1.19
-0.1
-1.24
-4.63
-0.27
2.47
-1.13
0.17
2.44

> <PUBCHEM_SHAPE_SELFOVERLAP>
1231.308

> <PUBCHEM_SHAPE_VOLUME>
303.5

> <PUBCHEM_COORDINATE_TYPE>
2
5
10

$$$$
16659841
  -OEChem-11282412143D

 38 40  0     1  0  0  0  0  0999 V2000
   -3.4937   -3.1090   -1.6150 Cl  0  0  0  0  0  0  0  0  0  0  0  0
    3.7497    2.7102   -2.2592 F   0  0  0  0  0  0  0  0  0  0  0  0
    1.5428   -2.1062    1.0142 N   0  0  0  0  0  0  0  0  0  0  0  0
   -2.6010   -0.4795   -0.4088 N   0  0  0  0  0  0  0  0  0  0  0  0
   -0.5018   -1.2864    0.3200 N   0  0  0  0  0  0  0  0  0  0  0  0
    1.6984    1.2846    0.3683 N   0  0  0  0  0  0  0  0  0  0  0  0
    3.5210   -0.2124   -0.1260 N   0  0  0  0  0  0  0  0  0  0  0  0
    0.1348   -3.5767   -0.0762 N   0  0  0  0  0  0  0  0  0  0  0  0
   -1.8436    2.8079    0.9265 N   0  0  0  0  0  0  0  0  0  0  0  0
   -1.5650    1.5184    0.6700 N   0  0  0  0  0  0  0  0  0  0  0  0
    1.9119   -0.7944    1.5778 C   0  0  1  0  0  0  0  0  0  0  0  0
    2.9312   -1.0282    2.7080 C   0  0  0  0  0  0  0  0  0  0  0  0
    2.4090    0.1536    0.5397 C   0  0  0  0  0  0  0  0  0  0  0  0
    0.3431   -2.3325    0.3953 C   0  0  0  0  0  0  0  0  0  0  0  0
   -1.6724   -1.5437   -0.2994 C   0  0  0  0  0  0  0  0  0  0  0  0
   -2.5619    0.8595    0.0123 C   0  0  0  0  0  0  0  0  0  0  0  0
   -3.0649    2.9631    0.4085 C   0  0  0  0  0  0  0  0  0  0  0  0
   -3.5623    1.7820   -0.1741 C   0  0  0  0  0  0  0  0  0  0  0  0
   -2.0070   -2.7746   -0.8259 C   0  0  0  0  0  0  0  0  0  0  0  0
   -1.0554   -3.7636   -0.6834 C   0  0  0  0  0  0  0  0  0  0  0  0
   -3.7360    4.2797    0.4926 C   0  0  0  0  0  0  0  0  0  0  0  0
    2.1761    2.1192   -0.5782 C   0  0  0  0  0  0  0  0  0  0  0  0
    3.9426    0.6681   -1.0572 C   0  0  0  0  0  0  0  0  0  0  0  0
    3.3042    1.8608   -1.3295 C   0  0  0  0  0  0  0  0  0  0  0  0
    1.0322   -0.3571    2.0698 H   0  0  0  0  0  0  0  0  0  0  0  0
    2.2180   -2.8613    1.0375 H   0  0  0  0  0  0  0  0  0  0  0  0
    3.8458   -1.5024    2.3338 H   0  0  0  0  0  0  0  0  0  0  0  0
    2.5108   -1.6838    3.4786 H   0  0  0  0  0  0  0  0  0  0  0  0
    3.2133   -0.0809    3.1803 H   0  0  0  0  0  0  0  0  0  0  0  0
   -3.4499   -0.7748   -0.8894 H   0  0  0  0  0  0  0  0  0  0  0  0
   -4.5253    1.6718   -0.6523 H   0  0  0  0  0  0  0  0  0  0  0  0
   -1.1886    3.4153    1.4098 H   0  0  0  0  0  0  0  0  0  0  0  0
   -1.2162   -4.7687   -1.0611 H   0  0  0  0  0  0  0  0  0  0  0  0
   -3.8690    4.5806    1.5370 H   0  0  0  0  0  0  0  0  0  0  0  0
   -3.1455    5.0487   -0.0164 H   0  0  0  0  0  0  0  0  0  0  0  0
   -4.7248    4.2513    0.0234 H   0  0  0  0  0  0  0  0  0  0  0  0
    1.6072    3.0316   -0.7214 H   0  0  0  0  0  0  0  0  0  0  0  0
    4.8379    0.3789   -1.5971 H   0  0  0  0  0  0  0  0  0  0  0  0
  1 19  1  0  0  0  0
  2 24  1  0  0  0  0
  3 11  1  0  0  0  0
  3 14  1  0  0  0  0
  3 26  1  0  0  0  0
  4 15  1  0  0  0  0
  4 16  1  0  0  0  0
  4 30  1  0  0  0  0
  5 14  1  0  0  0  0
  5 15  2  0  0  0  0
  6 13  1  0  0  0  0
  6 22  2  0  0  0  0
  7 13  2  0  0  0  0
  7 23  1  0  0  0  0
  8 14  2  0  0  0  0
  8 20  1  0  0  0  0
  9 10  1  0  0  0  0
  9 17  1  0  0  0  0
  9 32  1  0  0  0  0
 10 16  2  0  0  0  0
 11 12  1  0  0  0  0
 11 13  1  0  0  0  0
 11 25  1  0  0  0  0
 12 27  1  0  0  0  0
 12 28  1  0  0  0  0
 12 29  1  0  0  0  0
 15 19  1  0  0  0  0
 16 18  1  0  0  0  0
 17 18  2  0  0  0  0
 17 21  1  0  0  0  0
 18 31  1  0  0  0  0
 19 20  2  0  0  0  0
 20 33  1  0  0  0  0
 21 34  1  0  0  0  0
 21 35  1  0  0  0  0
 21 36  1  0  0  0  0
 22 24  1  0  0  0  0
 22 37  1  0  0  0  0
 23 24  2  0  0  0  0
 23 38  1  0  0  0  0
M  END
> <PUBCHEM_COMPOUND_CID>
16659841

> <PUBCHEM_CONFORMER_RMSD>
0.8

> <PUBCHEM_CONFORMER_DIVERSEORDER>
1
178
147
109
161
77
151
32
204
189
54
38
134
83
82
139
156
20
15
102
65
97
108
165
89
200
96
99
91
123
44
107
76
87
57
27
62
75
39
127
33
73
128
93
145
142
193
69
205
129
133
163
149
30
186
40
12
16
150
146
46
115
84
114
6
160
153
198
78
176
98
116
170
179
86
194
169
74
71
41
17
58
167
136
181
120
50
138
159
180
121
132
49
177
137
197
131
148
124
45
118
144
199
173
26
67
106
152
53
11
140
190
36
171
191
164
166
42
196
68
35
59
175
10
110
13
72
92
154
31
61
119
192
63
100
187
188
88
112
7
157
125
95
195
81
18
130
111
172
80
183
52
143
203
37
185
105
55
122
85
29
9
47
5
14
51
23
174
113
43
182
117
56
162
66
34
8
24
25
64
158
201
141
28
21
60
101
19
2
48
79
184
104
94
135
202
22
103
126
168
4
3
155
90
70

> <PUBCHEM_MMFF94_PARTIAL_CHARGES>
30
1 -0.18
10 -0.71
11 0.51
13 0.48
14 0.72
15 0.41
16 0.37
17 -0.33
18 -0.15
19 0.18
2 -0.19
20 0.16
21 0.18
22 0.16
23 0.16
24 0.19
26 0.4
3 -0.87
30 0.4
31 0.15
32 0.27
33 0.15
37 0.15
38 0.15
4 -0.58
5 -0.62
6 -0.62
7 -0.62
8 -0.62
9 0.3

> <PUBCHEM_EFFECTIVE_ROTOR_COUNT>
5

> <PUBCHEM_PHARMACOPHORE_FEATURES>
10
1 3 donor
1 4 donor
1 6 acceptor
1 9 donor
3 4 10 16 cation
3 6 7 13 cation
4 3 5 8 14 cation
5 9 10 16 17 18 rings
6 5 8 14 15 19 20 rings
6 6 7 13 22 23 24 rings

> <PUBCHEM_HEAVY_ATOM_COUNT>
24

> <PUBCHEM_ATOM_DEF_STEREO_COUNT>
1

> <PUBCHEM_ATOM_UDEF_STEREO_COUNT>
0

> <PUBCHEM_BOND_DEF_STEREO_COUNT>
0

> <PUBCHEM_BOND_UDEF_STEREO_COUNT>
0

> <PUBCHEM_ISOTOPIC_ATOM_COUNT>
0

> <PUBCHEM_COMPONENT_COUNT>
1

> <PUBCHEM_CACTVS_TAUTO_COUNT>
35

> <PUBCHEM_CONFORMER_ID>
00FE358100000001

> <PUBCHEM_MMFF94_ENERGY>
69.376

> <PUBCHEM_FEATURE_SELFOVERLAP>
50.747

> <PUBCHEM_SHAPE_FINGERPRINT>
10498660 4 17832699450079549502
10871710 139 18265626553173972261
11640471 11 18114464539014323804
12293681 160 17540250269402578320
12422481 6 17255934811934326818
12553582 1 17907859853188350163
12788726 201 18266735964506394591
13009979 54 18190716778676673954
13583140 156 17169825566946801323
13899415 154 17977666734519944871
13965767 371 17617905099043444074
14123250 116 18117287054087719284
14251751 93 18336841848021450348
14251757 17 17842308924171441150
14931854 50 17975130151912862460
15210252 30 17610889476229352925
15475509 8 17770799093531611519
15664445 248 17333075928994423331
16752209 62 18341885329370006975
17980427 26 14536838196968713555
18785283 64 17761794866267411169
20465049 17 18122372110471567012
20642791 239 17758392264257461487
20642791 35 17764869491525237823
20739085 24 17617376182241745706
21049683 271 16831226395375708743
21141583 151 17472704005848679708
21864079 5 18334016111707076978
22149856 69 17841713999216097633
23557571 272 17843952878670026874
23558518 356 18265603304664523579
23559900 14 17477759088468366473
2637199 183 18262819375281195180
3060560 45 18120384150915469916
352729 6 18339911654780476739
437795 83 16820004213099871780
474 4 17977382729590543585
5048184 11 18338521841564782605
57100710 29 18336815399512647576
5895379 119 18411130377459925434
6287921 2 17766557954859459773
7064713 232 18052796088587106768

> <PUBCHEM_SHAPE_MULTIPOLES>
448.66
7.26
5.61
1.65
1.21
0.3
-0.26
-5.4
1.59
-6.02
1.06
2.02
-0.04
-3.8

> <PUBCHEM_SHAPE_SELFOVERLAP>
956.277

> <PUBCHEM_SHAPE_VOLUME>
251.1

> <PUBCHEM_COORDINATE_TYPE>
2
5
10

$$$$
24756910
  -OEChem-11282412143D

 58 60  0     0  0  0  0  0  0999 V2000
    1.2567    1.4855    1.6388 O   0  0  0  0  0  0  0  0  0  0  0  0
    2.5067   -0.9919    1.8555 O   0  0  0  0  0  0  0  0  0  0  0  0
    7.1794   -1.6617   -0.8623 O   0  0  0  0  0  0  0  0  0  0  0  0
    9.5981   -0.5063   -1.2601 O   0  0  0  0  0  0  0  0  0  0  0  0
   -3.1486    0.5251   -0.7101 N   0  0  0  0  0  0  0  0  0  0  0  0
    8.4096    0.2246   -1.3884 N   0  0  0  0  0  0  0  0  0  0  0  0
   -1.1732   -3.0909   -0.3203 N   0  0  0  0  0  0  0  0  0  0  0  0
   -3.0721   -1.8014   -1.0536 N   0  0  0  0  0  0  0  0  0  0  0  0
    3.9798    2.4684    1.2786 C   0  0  0  0  0  0  0  0  0  0  0  0
    4.3691    1.8608   -0.0700 C   0  0  0  0  0  0  0  0  0  0  0  0
    2.7271    3.3333    1.1573 C   0  0  0  0  0  0  0  0  0  0  0  0
    5.6423    1.0220    0.0443 C   0  0  0  0  0  0  0  0  0  0  0  0
    1.5242    2.5186    0.6999 C   0  0  0  0  0  0  0  0  0  0  0  0
    6.0115    0.3888   -1.2947 C   0  0  0  0  0  0  0  0  0  0  0  0
    0.6571    0.3517    1.1558 C   0  0  0  0  0  0  0  0  0  0  0  0
   -1.2119   -0.7215    0.0495 C   0  0  0  0  0  0  0  0  0  0  0  0
   -0.5918    0.4373    0.5484 C   0  0  0  0  0  0  0  0  0  0  0  0
    7.2494   -0.4718   -1.1621 C   0  0  0  0  0  0  0  0  0  0  0  0
    1.2836   -0.8849    1.2647 C   0  0  0  0  0  0  0  0  0  0  0  0
   -0.5892   -1.9761    0.1535 C   0  0  0  0  0  0  0  0  0  0  0  0
    0.6603   -2.0328    0.7661 C   0  0  0  0  0  0  0  0  0  0  0  0
   -2.4592   -0.7050   -0.5686 C   0  0  0  0  0  0  0  0  0  0  0  0
   -4.5147    0.8458   -0.7516 C   0  0  0  0  0  0  0  0  0  0  0  0
   -2.3828   -2.9430   -0.8975 C   0  0  0  0  0  0  0  0  0  0  0  0
   -5.4373    0.0609   -0.0600 C   0  0  0  0  0  0  0  0  0  0  0  0
   -4.9493    1.9499   -1.4848 C   0  0  0  0  0  0  0  0  0  0  0  0
    3.0799   -2.2959    1.9267 C   0  0  0  0  0  0  0  0  0  0  0  0
   -6.7945    0.3800   -0.1018 C   0  0  0  0  0  0  0  0  0  0  0  0
   -6.3065    2.2692   -1.5266 C   0  0  0  0  0  0  0  0  0  0  0  0
   -7.2290    1.4841   -0.8349 C   0  0  0  0  0  0  0  0  0  0  0  0
   -7.7400   -0.4238    0.6066 C   0  0  0  0  0  0  0  0  0  0  0  0
   -8.5346   -1.0991    1.2018 C   0  0  0  0  0  0  0  0  0  0  0  0
    3.8303    1.6765    2.0216 H   0  0  0  0  0  0  0  0  0  0  0  0
    4.8024    3.0934    1.6471 H   0  0  0  0  0  0  0  0  0  0  0  0
    4.5169    2.6578   -0.8085 H   0  0  0  0  0  0  0  0  0  0  0  0
    3.5738    1.2091   -0.4455 H   0  0  0  0  0  0  0  0  0  0  0  0
    2.9016    4.1610    0.4607 H   0  0  0  0  0  0  0  0  0  0  0  0
    2.5167    3.7686    2.1415 H   0  0  0  0  0  0  0  0  0  0  0  0
    5.5021    0.2347    0.7958 H   0  0  0  0  0  0  0  0  0  0  0  0
    6.4697    1.6490    0.3988 H   0  0  0  0  0  0  0  0  0  0  0  0
    1.6648    2.1259   -0.3134 H   0  0  0  0  0  0  0  0  0  0  0  0
    0.6509    3.1813    0.6677 H   0  0  0  0  0  0  0  0  0  0  0  0
    6.1787    1.1634   -2.0524 H   0  0  0  0  0  0  0  0  0  0  0  0
    5.1965   -0.2470   -1.6603 H   0  0  0  0  0  0  0  0  0  0  0  0
   -1.0745    1.4090    0.4880 H   0  0  0  0  0  0  0  0  0  0  0  0
    1.1094   -3.0201    0.8273 H   0  0  0  0  0  0  0  0  0  0  0  0
   -2.5496    1.2767   -1.0405 H   0  0  0  0  0  0  0  0  0  0  0  0
    8.4863    1.1714   -1.7416 H   0  0  0  0  0  0  0  0  0  0  0  0
   -2.8481   -3.8447   -1.2768 H   0  0  0  0  0  0  0  0  0  0  0  0
   -5.1065   -0.7939    0.5264 H   0  0  0  0  0  0  0  0  0  0  0  0
   -4.2415    2.5697   -2.0291 H   0  0  0  0  0  0  0  0  0  0  0  0
    4.0496   -2.1931    2.4251 H   0  0  0  0  0  0  0  0  0  0  0  0
    3.2792   -2.7044    0.9301 H   0  0  0  0  0  0  0  0  0  0  0  0
    2.4765   -2.9701    2.5438 H   0  0  0  0  0  0  0  0  0  0  0  0
   -6.6449    3.1288   -2.0978 H   0  0  0  0  0  0  0  0  0  0  0  0
   -8.2836    1.7460   -0.8773 H   0  0  0  0  0  0  0  0  0  0  0  0
    9.8373   -0.2859   -0.3440 H   0  0  0  0  0  0  0  0  0  0  0  0
   -9.2394   -1.6981    1.7297 H   0  0  0  0  0  0  0  0  0  0  0  0
  1 13  1  0  0  0  0
  1 15  1  0  0  0  0
  2 19  1  0  0  0  0
  2 27  1  0  0  0  0
  3 18  2  0  0  0  0
  4  6  1  0  0  0  0
  4 57  1  0  0  0  0
  5 22  1  0  0  0  0
  5 23  1  0  0  0  0
  5 47  1  0  0  0  0
  6 18  1  0  0  0  0
  6 48  1  0  0  0  0
  7 20  1  0  0  0  0
  7 24  2  0  0  0  0
  8 22  2  0  0  0  0
  8 24  1  0  0  0  0
  9 10  1  0  0  0  0
  9 11  1  0  0  0  0
  9 33  1  0  0  0  0
  9 34  1  0  0  0  0
 10 12  1  0  0  0  0
 10 35  1  0  0  0  0
 10 36  1  0  0  0  0
 11 13  1  0  0  0  0
 11 37  1  0  0  0  0
 11 38  1  0  0  0  0
 12 14  1  0  0  0  0
 12 39  1  0  0  0  0
 12 40  1  0  0  0  0
 13 41  1  0  0  0  0
 13 42  1  0  0  0  0
 14 18  1  0  0  0  0
 14 43  1  0  0  0  0
 14 44  1  0  0  0  0
 15 17  1  0  0  0  0
 15 19  2  0  0  0  0
 16 17  2  0  0  0  0
 16 20  1  0  0  0  0
 16 22  1  0  0  0  0
 17 45  1  0  0  0  0
 19 21  1  0  0  0  0
 20 21  2  0  0  0  0
 21 46  1  0  0  0  0
 23 25  1  0  0  0  0
 23 26  2  0  0  0  0
 24 49  1  0  0  0  0
 25 28  2  0  0  0  0
 25 50  1  0  0  0  0
 26 29  1  0  0  0  0
 26 51  1  0  0  0  0
 27 52  1  0  0  0  0
 27 53  1  0  0  0  0
 27 54  1  0  0  0  0
 28 30  1  0  0  0  0
 28 31  1  0  0  0  0
 29 30  2  0  0  0  0
 29 55  1  0  0  0  0
 30 56  1  0  0  0  0
 31 32  3  0  0  0  0
 32 58  1  0  0  0  0
M  END
> <PUBCHEM_COMPOUND_CID>
24756910

> <PUBCHEM_CONFORMER_RMSD>
1.4

> <PUBCHEM_CONFORMER_DIVERSEORDER>
7
96
69
65
108
94
43
55
105
2
63
71
14
82
32
109
8
100
95
38
91
17
115
64
92
112
47
70
81
118
89
61
113
97
80
75
42
41
86
117
104
10
57
77
6
88
119
76
50
98
13
73
46
107
103
66
99
34
58
83
9
44
30
111
59
62
84
93
36
114
22
26
74
12
20
85
110
102
106
16
78
67
48
116
52
11
25
72
1
27
79
90
15
53
28
3
18
33
49
24
45
56
40
35
54
60
31
101
37
5
19
68
87
21
51
29
39
23
4

> <PUBCHEM_MMFF94_PARTIAL_CHARGES>
38
1 -0.36
13 0.28
14 0.06
15 0.08
17 -0.15
18 0.57
19 0.08
2 -0.36
20 0.31
21 -0.15
22 0.41
23 0.1
24 0.47
25 -0.15
26 -0.15
27 0.28
28 0.07
29 -0.15
3 -0.57
30 -0.15
31 -0.07
32 -0.18
4 -0.44
45 0.15
46 0.15
47 0.4
48 0.37
49 0.15
5 -0.6
50 0.15
51 0.15
55 0.15
56 0.15
57 0.4
58 0.18
6 -0.39
7 -0.62
8 -0.62

> <PUBCHEM_EFFECTIVE_ROTOR_COUNT>
12

> <PUBCHEM_PHARMACOPHORE_FEATURES>
12
1 1 acceptor
1 2 acceptor
1 3 acceptor
1 32 hydrophobe
1 5 donor
1 6 donor
3 5 8 22 cation
3 7 8 24 cation
5 9 10 11 12 14 hydrophobe
6 15 16 17 19 20 21 rings
6 23 25 26 28 29 30 rings
6 7 8 16 20 22 24 rings

> <PUBCHEM_HEAVY_ATOM_COUNT>
32

> <PUBCHEM_ATOM_DEF_STEREO_COUNT>
0

> <PUBCHEM_ATOM_UDEF_STEREO_COUNT>
0

> <PUBCHEM_BOND_DEF_STEREO_COUNT>
0

> <PUBCHEM_BOND_UDEF_STEREO_COUNT>
0

> <PUBCHEM_ISOTOPIC_ATOM_COUNT>
0

> <PUBCHEM_COMPONENT_COUNT>
1

> <PUBCHEM_CACTVS_TAUTO_COUNT>
9

> <PUBCHEM_CONFORMER_ID>
0179C2AE00000007

> <PUBCHEM_MMFF94_ENERGY>
105.1309

> <PUBCHEM_FEATURE_SELFOVERLAP>
61.071

> <PUBCHEM_SHAPE_FINGERPRINT>
10483366 6 18341895156629746128
10670039 82 18059858320819316825
10816530 90 18337100199363686018
11135609 201 12252186320829002508
11273773 46 18272940414354167958
11720765 8 17703787076712408664
13914758 101 13614524056477203731
15052358 14 18413387644614342012
15183329 4 18202001014819716052
15728490 51 12685099210896006809
19611394 137 17605003679607976769
20105231 36 18410862083527479835
20465049 17 18409448102562037328
20609170 85 10735324134781588451
21279426 13 18342734156863260952
21781051 124 18259706713533948120
21781055 127 16845303705060526315
23559900 14 18059569261072428944
249057 3 18273215313809535022
38570 142 18187081749841883266
4149490 64 12894489127637336437
5104073 3 18260823758305318865
59682541 35 8430310230486038756
6126387 218 13686300158200036162
6523845 18 18412265056343250677
9689198 14 16877947131188655900

> <PUBCHEM_SHAPE_MULTIPOLES>
615.14
24.44
3.28
1.65
9.59
0.07
0.2
3.49
-10.1
0.42
0.41
1.28
0.07
2.3

> <PUBCHEM_SHAPE_SELFOVERLAP>
1301.707

> <PUBCHEM_SHAPE_VOLUME>
341

> <PUBCHEM_COORDINATE_TYPE>
2
5
10

$$$$
11234052
  -OEChem-11282412143D

 46 49  0     1  0  0  0  0  0999 V2000
   -2.2347   -1.1234    1.6243 F   0  0  0  0  0  0  0  0  0  0  0  0
    4.7957   -0.6541   -0.1871 O   0  0  0  0  0  0  0  0  0  0  0  0
   -0.6999   -0.7223   -0.6181 O   0  0  0  0  0  0  0  0  0  0  0  0
    7.1081   -1.7875    0.8554 O   0  0  0  0  0  0  0  0  0  0  0  0
    2.0322    1.4829    0.1811 N   0  0  0  0  0  0  0  0  0  0  0  0
   -6.1256    0.0623   -0.5602 N   0  0  0  0  0  0  0  0  0  0  0  0
    1.3946    2.6563    0.4490 N   0  0  0  0  0  0  0  0  0  0  0  0
   -0.6751    1.4980   -0.0194 N   0  0  0  0  0  0  0  0  0  0  0  0
    1.3824    0.3298   -0.1783 C   0  0  0  0  0  0  0  0  0  0  0  0
    2.3214   -0.6562   -0.3732 C   0  0  0  0  0  0  0  0  0  0  0  0
    3.5895   -0.0719   -0.1211 C   0  0  0  0  0  0  0  0  0  0  0  0
   -4.2070   -0.4984    0.4306 C   0  0  0  0  0  0  0  0  0  0  0  0
   -4.7729   -0.0774   -0.7748 C   0  0  0  0  0  0  0  0  0  0  0  0
    3.3818    1.2490    0.2193 C   0  0  0  0  0  0  0  0  0  0  0  0
   -0.0342    0.4023   -0.2655 C   0  0  0  0  0  0  0  0  0  0  0  0
   -2.0455   -0.5112   -0.6631 C   0  0  0  0  0  0  0  0  0  0  0  0
   -6.4335   -0.2550    0.7355 C   0  0  0  0  0  0  0  0  0  0  0  0
   -2.8164   -0.7193    0.4863 C   0  0  0  0  0  0  0  0  0  0  0  0
   -5.2666   -0.6062    1.3742 C   0  0  0  0  0  0  0  0  0  0  0  0
    2.1136   -2.0648   -0.7678 C   0  0  0  0  0  0  0  0  0  0  0  0
    5.9328    0.1612    0.1183 C   0  0  0  0  0  0  0  0  0  0  0  0
   -4.0148    0.1345   -1.9318 C   0  0  0  0  0  0  0  0  0  0  0  0
    7.1967   -0.6755   -0.0342 C   0  0  1  0  0  0  0  0  0  0  0  0
   -2.6376   -0.0909   -1.8525 C   0  0  0  0  0  0  0  0  0  0  0  0
   -7.8205   -0.1892    1.2315 C   0  0  0  0  0  0  0  0  0  0  0  0
    0.0939    2.5973    0.3345 C   0  0  0  0  0  0  0  0  0  0  0  0
    8.4415    0.1295    0.3071 C   0  0  0  0  0  0  0  0  0  0  0  0
    4.0593    2.0492    0.4862 H   0  0  0  0  0  0  0  0  0  0  0  0
   -5.1812   -0.9086    2.4093 H   0  0  0  0  0  0  0  0  0  0  0  0
    3.0575   -2.6141   -0.8423 H   0  0  0  0  0  0  0  0  0  0  0  0
    1.4862   -2.5800   -0.0331 H   0  0  0  0  0  0  0  0  0  0  0  0
    1.6185   -2.1205   -1.7428 H   0  0  0  0  0  0  0  0  0  0  0  0
   -6.7922    0.3569   -1.2607 H   0  0  0  0  0  0  0  0  0  0  0  0
    5.8496    0.5151    1.1541 H   0  0  0  0  0  0  0  0  0  0  0  0
    5.9799    1.0157   -0.5681 H   0  0  0  0  0  0  0  0  0  0  0  0
   -4.4748    0.4615   -2.8582 H   0  0  0  0  0  0  0  0  0  0  0  0
    7.2655   -1.0809   -1.0489 H   0  0  0  0  0  0  0  0  0  0  0  0
   -2.0263    0.0653   -2.7385 H   0  0  0  0  0  0  0  0  0  0  0  0
   -8.4674   -0.8660    0.6640 H   0  0  0  0  0  0  0  0  0  0  0  0
   -7.8771   -0.4761    2.2866 H   0  0  0  0  0  0  0  0  0  0  0  0
   -8.2176    0.8268    1.1378 H   0  0  0  0  0  0  0  0  0  0  0  0
    8.5580    0.9842   -0.3659 H   0  0  0  0  0  0  0  0  0  0  0  0
    8.4055    0.4972    1.3385 H   0  0  0  0  0  0  0  0  0  0  0  0
    9.3343   -0.5003    0.2298 H   0  0  0  0  0  0  0  0  0  0  0  0
   -0.4721    3.5206    0.5404 H   0  0  0  0  0  0  0  0  0  0  0  0
    7.0501   -1.4428    1.7630 H   0  0  0  0  0  0  0  0  0  0  0  0
  1 18  1  0  0  0  0
  2 11  1  0  0  0  0
  2 21  1  0  0  0  0
  3 15  1  0  0  0  0
  3 16  1  0  0  0  0
  4 23  1  0  0  0  0
  4 46  1  0  0  0  0
  5  7  1  0  0  0  0
  5  9  1  0  0  0  0
  5 14  1  0  0  0  0
  6 13  1  0  0  0  0
  6 17  1  0  0  0  0
  6 33  1  0  0  0  0
  7 26  2  0  0  0  0
  8 15  2  0  0  0  0
  8 26  1  0  0  0  0
  9 10  2  0  0  0  0
  9 15  1  0  0  0  0
 10 11  1  0  0  0  0
 10 20  1  0  0  0  0
 11 14  2  0  0  0  0
 12 13  2  0  0  0  0
 12 18  1  0  0  0  0
 12 19  1  0  0  0  0
 13 22  1  0  0  0  0
 14 28  1  0  0  0  0
 16 18  2  0  0  0  0
 16 24  1  0  0  0  0
 17 19  2  0  0  0  0
 17 25  1  0  0  0  0
 19 29  1  0  0  0  0
 20 30  1  0  0  0  0
 20 31  1  0  0  0  0
 20 32  1  0  0  0  0
 21 23  1  0  0  0  0
 21 34  1  0  0  0  0
 21 35  1  0  0  0  0
 22 24  2  0  0  0  0
 22 36  1  0  0  0  0
 23 27  1  0  0  0  0
 23 37  1  0  0  0  0
 24 38  1  0  0  0  0
 25 39  1  0  0  0  0
 25 40  1  0  0  0  0
 25 41  1  0  0  0  0
 26 45  1  0  0  0  0
 27 42  1  0  0  0  0
 27 43  1  0  0  0  0
 27 44  1  0  0  0  0
M  END
> <PUBCHEM_COMPOUND_CID>
11234052

> <PUBCHEM_CONFORMER_RMSD>
0.8

> <PUBCHEM_CONFORMER_DIVERSEORDER>
1
54
36
64
60
57
48
63
34
45
40
30
24
52
35
38
12
44
31
42
27
9
51
4
46
49
61
7
59
55
53
58
22
43
41
8
13
62
32
50
47
26
3
16
39
28
5
15
11
23
14
21
2
25
29
19
33
56
10
20
37
17
6
18

> <PUBCHEM_MMFF94_PARTIAL_CHARGES>
32
1 -0.19
10 -0.18
11 0.06
13 -0.15
14 -0.3
15 0.69
16 0.08
17 -0.33
18 0.19
19 -0.15
2 -0.34
20 0.18
21 0.28
22 -0.15
23 0.28
24 -0.15
25 0.18
26 0.6
28 0.15
29 0.15
3 -0.23
33 0.27
36 0.15
38 0.15
4 -0.68
45 0.06
46 0.4
5 0.51
6 0.03
7 -0.65
8 -0.66
9 -0.24

> <PUBCHEM_EFFECTIVE_ROTOR_COUNT>
5

> <PUBCHEM_PHARMACOPHORE_FEATURES>
10
1 2 acceptor
1 4 acceptor
1 4 donor
1 6 cation
1 6 donor
3 7 8 26 cation
5 5 9 10 11 14 rings
5 6 12 13 17 19 rings
6 12 13 16 18 22 24 rings
6 5 7 8 9 15 26 rings

> <PUBCHEM_HEAVY_ATOM_COUNT>
27

> <PUBCHEM_ATOM_DEF_STEREO_COUNT>
1

> <PUBCHEM_ATOM_UDEF_STEREO_COUNT>
0

> <PUBCHEM_BOND_DEF_STEREO_COUNT>
0

> <PUBCHEM_BOND_UDEF_STEREO_COUNT>
0

> <PUBCHEM_ISOTOPIC_ATOM_COUNT>
0

> <PUBCHEM_COMPONENT_COUNT>
1

> <PUBCHEM_CACTVS_TAUTO_COUNT>
1

> <PUBCHEM_CONFORMER_ID>
00AB6B0400000001

> <PUBCHEM_MMFF94_ENERGY>
67.4295

> <PUBCHEM_FEATURE_SELFOVERLAP>
50.958

> <PUBCHEM_SHAPE_FINGERPRINT>
10299344 5 15285355115757738890
11089746 13 16702299074656083249
11315181 36 15430037656365897527
11524674 6 18408042931234661891
12166972 35 17676490549485192500
12236239 1 17275385430511876279
12516196 113 18201719552859509736
12741549 16 18113899364611508133
12760667 363 18412542098460232364
13631057 29 11530780227537952473
13673619 4 17749108906990054077
13685833 64 18408324384772556114
13782708 43 17895758516623227467
14251764 18 17703789244973676573
14849402 71 17560231565761311728
15183329 4 14634867531538539176
15461852 350 13254788058315002797
16087824 20 18197778809272442801
18006028 8 18413670210386158176
18608769 82 17313391157827537211
20511986 3 16988552520680527185
21033648 29 18115009897452062141
21150785 3 13695870329230817930
21236236 1 18342737364908776184
21267235 1 18411985745893069436
21304253 13 17632857538200919664
21521721 280 18272929466935912160
21792934 111 18342449349292979616
21792961 116 18115016416784584430
22224240 67 17561360691267369750
2297311 6 16732982025045720277
23198884 109 14923944535532397448
23536379 177 16226042272090839526
23559900 14 17894910784225203884
23845131 108 16980981047273261360
3004659 81 17676486159912375904
3178227 256 18410294722774079002
335352 9 18342455971599098574
345986 75 17988359244127561827
34797466 226 16732988648201704404
4098825 35 17312821559206472260
4325135 7 10809342256724259609
5104073 3 18128531562632659130
5265222 85 17096096895576086786
57527295 17 18118376520351226471
5758199 1 17561361790810730422
6691757 9 15913329122290329847
9663363 56 18411974759161030276

> <PUBCHEM_SHAPE_MULTIPOLES>
510.84
20.32
1.71
1.26
14.34
0.94
-0.23
-5.44
5.99
1.72
0.17
-2.12
-0.24
0.22

> <PUBCHEM_SHAPE_SELFOVERLAP>
1131.252

> <PUBCHEM_SHAPE_VOLUME>
278.1

> <PUBCHEM_COORDINATE_TYPE>
2
5
10

$$$$
24826799
  -OEChem-11282412143D

 66 70  0     0  0  0  0  0  0999 V2000
    5.3747    3.2889    0.0735 F   0  0  0  0  0  0  0  0  0  0  0  0
    6.3503    2.3410    1.7628 F   0  0  0  0  0  0  0  0  0  0  0  0
    6.7605    1.6459   -0.2564 F   0  0  0  0  0  0  0  0  0  0  0  0
   -0.2753   -0.9633    0.3235 O   0  0  0  0  0  0  0  0  0  0  0  0
    7.0973   -0.9282    0.4382 N   0  0  0  0  0  0  0  0  0  0  0  0
    9.0928   -2.4913   -0.9520 N   0  0  0  0  0  0  0  0  0  0  0  0
    1.0189    0.9624   -0.0575 N   0  0  0  0  0  0  0  0  0  0  0  0
   -8.2498   -0.9206    0.1695 N   0  0  0  0  0  0  0  0  0  0  0  0
   -9.3059   -0.2003    1.9969 N   0  0  0  0  0  0  0  0  0  0  0  0
   -7.9908   -1.6107   -0.9768 N   0  0  0  0  0  0  0  0  0  0  0  0
    6.7682   -2.2295   -0.1560 C   0  0  0  0  0  0  0  0  0  0  0  0
    8.5094   -0.8901    0.8377 C   0  0  0  0  0  0  0  0  0  0  0  0
    7.6805   -2.5297   -1.3505 C   0  0  0  0  0  0  0  0  0  0  0  0
    9.4224   -1.1909   -0.3559 C   0  0  0  0  0  0  0  0  0  0  0  0
    6.2276   -0.6430    1.5777 C   0  0  0  0  0  0  0  0  0  0  0  0
    4.8564   -0.2013    1.1400 C   0  0  0  0  0  0  0  0  0  0  0  0
    9.9618   -2.7748   -2.0925 C   0  0  0  0  0  0  0  0  0  0  0  0
    4.6375    1.0893    0.6582 C   0  0  0  0  0  0  0  0  0  0  0  0
    3.7963   -1.1040    1.2226 C   0  0  0  0  0  0  0  0  0  0  0  0
    3.3585    1.4770    0.2585 C   0  0  0  0  0  0  0  0  0  0  0  0
    2.5173   -0.7162    0.8231 C   0  0  0  0  0  0  0  0  0  0  0  0
    2.2984    0.5742    0.3410 C   0  0  0  0  0  0  0  0  0  0  0  0
    5.7571    2.0732    0.5630 C   0  0  0  0  0  0  0  0  0  0  0  0
   -0.1568    0.2003   -0.0452 C   0  0  0  0  0  0  0  0  0  0  0  0
   -1.3682    0.8893   -0.5624 C   0  0  0  0  0  0  0  0  0  0  0  0
   -2.6327    0.5099   -0.1123 C   0  0  0  0  0  0  0  0  0  0  0  0
   -1.2398    1.9164   -1.4974 C   0  0  0  0  0  0  0  0  0  0  0  0
   -3.7691    1.1578   -0.5970 C   0  0  0  0  0  0  0  0  0  0  0  0
   -3.6407    2.1848   -1.5321 C   0  0  0  0  0  0  0  0  0  0  0  0
   -2.3761    2.5640   -1.9823 C   0  0  0  0  0  0  0  0  0  0  0  0
   -4.8358    2.9018   -2.0737 C   0  0  0  0  0  0  0  0  0  0  0  0
   -5.0556    0.7499   -0.1207 C   0  0  0  0  0  0  0  0  0  0  0  0
   -7.4211   -0.0004    0.7555 C   0  0  0  0  0  0  0  0  0  0  0  0
   -9.3831   -1.0089    0.9593 C   0  0  0  0  0  0  0  0  0  0  0  0
   -6.1355    0.4074    0.2792 C   0  0  0  0  0  0  0  0  0  0  0  0
   -8.0925    0.4273    1.8757 C   0  0  0  0  0  0  0  0  0  0  0  0
  -10.3918   -1.9097    0.5443 C   0  0  0  0  0  0  0  0  0  0  0  0
  -10.2173   -2.6276   -0.5712 C   0  0  0  0  0  0  0  0  0  0  0  0
   -8.9479   -2.4203   -1.3084 C   0  0  0  0  0  0  0  0  0  0  0  0
    5.7370   -2.2382   -0.5259 H   0  0  0  0  0  0  0  0  0  0  0  0
    6.8579   -3.0360    0.5846 H   0  0  0  0  0  0  0  0  0  0  0  0
    8.7065   -1.6076    1.6457 H   0  0  0  0  0  0  0  0  0  0  0  0
    8.7622    0.1077    1.2171 H   0  0  0  0  0  0  0  0  0  0  0  0
    7.4811   -1.8106   -2.1568 H   0  0  0  0  0  0  0  0  0  0  0  0
    7.4307   -3.5267   -1.7333 H   0  0  0  0  0  0  0  0  0  0  0  0
   10.4607   -1.1975   -0.0026 H   0  0  0  0  0  0  0  0  0  0  0  0
    9.3349   -0.3861   -1.0986 H   0  0  0  0  0  0  0  0  0  0  0  0
    6.6539    0.1414    2.2144 H   0  0  0  0  0  0  0  0  0  0  0  0
    6.1559   -1.5130    2.2460 H   0  0  0  0  0  0  0  0  0  0  0  0
    9.8502   -2.0350   -2.8933 H   0  0  0  0  0  0  0  0  0  0  0  0
   11.0121   -2.7898   -1.7809 H   0  0  0  0  0  0  0  0  0  0  0  0
    9.7425   -3.7656   -2.5057 H   0  0  0  0  0  0  0  0  0  0  0  0
    3.9521   -2.1131    1.5955 H   0  0  0  0  0  0  0  0  0  0  0  0
    3.1803    2.4815   -0.1182 H   0  0  0  0  0  0  0  0  0  0  0  0
    1.7502   -1.4716    0.9171 H   0  0  0  0  0  0  0  0  0  0  0  0
    0.9573    1.9322   -0.3547 H   0  0  0  0  0  0  0  0  0  0  0  0
   -2.7363   -0.2873    0.6212 H   0  0  0  0  0  0  0  0  0  0  0  0
   -0.2799    2.2201   -1.9038 H   0  0  0  0  0  0  0  0  0  0  0  0
   -2.2581    3.3566   -2.7166 H   0  0  0  0  0  0  0  0  0  0  0  0
   -5.5005    2.2033   -2.5930 H   0  0  0  0  0  0  0  0  0  0  0  0
   -5.3864    3.3958   -1.2661 H   0  0  0  0  0  0  0  0  0  0  0  0
   -4.5542    3.6772   -2.7946 H   0  0  0  0  0  0  0  0  0  0  0  0
   -7.7678    1.1556    2.6056 H   0  0  0  0  0  0  0  0  0  0  0  0
  -11.2961   -2.0100    1.1338 H   0  0  0  0  0  0  0  0  0  0  0  0
  -10.9453   -3.3336   -0.9465 H   0  0  0  0  0  0  0  0  0  0  0  0
   -8.8363   -3.0265   -2.2221 H   0  0  0  0  0  0  0  0  0  0  0  0
  1 23  1  0  0  0  0
  2 23  1  0  0  0  0
  3 23  1  0  0  0  0
  4 24  2  0  0  0  0
  5 11  1  0  0  0  0
  5 12  1  0  0  0  0
  5 15  1  0  0  0  0
  6 13  1  0  0  0  0
  6 14  1  0  0  0  0
  6 17  1  0  0  0  0
  7 22  1  0  0  0  0
  7 24  1  0  0  0  0
  7 56  1  0  0  0  0
  8 10  1  0  0  0  0
  8 33  1  0  0  0  0
  8 34  1  0  0  0  0
  9 34  2  0  0  0  0
  9 36  1  0  0  0  0
 10 39  2  0  0  0  0
 11 13  1  0  0  0  0
 11 40  1  0  0  0  0
 11 41  1  0  0  0  0
 12 14  1  0  0  0  0
 12 42  1  0  0  0  0
 12 43  1  0  0  0  0
 13 44  1  0  0  0  0
 13 45  1  0  0  0  0
 14 46  1  0  0  0  0
 14 47  1  0  0  0  0
 15 16  1  0  0  0  0
 15 48  1  0  0  0  0
 15 49  1  0  0  0  0
 16 18  2  0  0  0  0
 16 19  1  0  0  0  0
 17 50  1  0  0  0  0
 17 51  1  0  0  0  0
 17 52  1  0  0  0  0
 18 20  1  0  0  0  0
 18 23  1  0  0  0  0
 19 21  2  0  0  0  0
 19 53  1  0  0  0  0
 20 22  2  0  0  0  0
 20 54  1  0  0  0  0
 21 22  1  0  0  0  0
 21 55  1  0  0  0  0
 24 25  1  0  0  0  0
 25 26  2  0  0  0  0
 25 27  1  0  0  0  0
 26 28  1  0  0  0  0
 26 57  1  0  0  0  0
 27 30  2  0  0  0  0
 27 58  1  0  0  0  0
 28 29  2  0  0  0  0
 28 32  1  0  0  0  0
 29 30  1  0  0  0  0
 29 31  1  0  0  0  0
 30 59  1  0  0  0  0
 31 60  1  0  0  0  0
 31 61  1  0  0  0  0
 31 62  1  0  0  0  0
 32 35  3  0  0  0  0
 33 35  1  0  0  0  0
 33 36  2  0  0  0  0
 34 37  1  0  0  0  0
 36 63  1  0  0  0  0
 37 38  2  0  0  0  0
 37 64  1  0  0  0  0
 38 39  1  0  0  0  0
 38 65  1  0  0  0  0
 39 66  1  0  0  0  0
M  END
> <PUBCHEM_COMPOUND_CID>
24826799

> <PUBCHEM_CONFORMER_RMSD>
1

> <PUBCHEM_CONFORMER_DIVERSEORDER>
1
32
17
38
20
12
19
29
30
41
25
27
47
46
45
35
31
2
14
5
7
16
33
15
24
26
6
42
13
37
11
39
44
28
21
4
10
23
36
3
22
40
8
18
43
34
9

> <PUBCHEM_MMFF94_PARTIAL_CHARGES>
50
1 -0.34
10 -0.65
11 0.27
12 0.27
13 0.27
14 0.27
15 0.41
16 -0.14
17 0.27
18 -0.14
19 -0.15
2 -0.34
20 -0.15
21 -0.15
22 0.12
23 1.16
24 0.54
25 0.09
26 -0.15
27 -0.15
28 0.07
29 -0.14
3 -0.34
30 -0.15
31 0.14
32 -0.07
33 -0.13
34 0.14
35 -0.02
36 0.08
37 -0.11
38 -0.14
39 0.38
4 -0.57
5 -0.81
53 0.15
54 0.15
55 0.15
56 0.37
57 0.15
58 0.15
59 0.15
6 -0.81
63 0.15
64 0.15
65 0.15
66 0.06
7 -0.55
8 0.51
9 -0.57

> <PUBCHEM_EFFECTIVE_ROTOR_COUNT>
7.2

> <PUBCHEM_PHARMACOPHORE_FEATURES>
11
1 10 acceptor
1 4 acceptor
1 5 cation
1 6 cation
1 7 donor
3 8 9 34 cation
5 8 9 33 34 36 rings
6 16 18 19 20 21 22 rings
6 25 26 27 28 29 30 rings
6 5 6 11 12 13 14 rings
6 8 10 34 37 38 39 rings

> <PUBCHEM_HEAVY_ATOM_COUNT>
39

> <PUBCHEM_ATOM_DEF_STEREO_COUNT>
0

> <PUBCHEM_ATOM_UDEF_STEREO_COUNT>
0

> <PUBCHEM_BOND_DEF_STEREO_COUNT>
0

> <PUBCHEM_BOND_UDEF_STEREO_COUNT>
0

> <PUBCHEM_ISOTOPIC_ATOM_COUNT>
0

> <PUBCHEM_COMPONENT_COUNT>
1

> <PUBCHEM_CACTVS_TAUTO_COUNT>
2

> <PUBCHEM_CONFORMER_ID>
017AD3AF00000001

> <PUBCHEM_MMFF94_ENERGY>
91.6837

> <PUBCHEM_FEATURE_SELFOVERLAP>
55.962

> <PUBCHEM_SHAPE_FINGERPRINT>
10162869 55 15647058153718927270
10372059 70 8862948269133483327
10533779 47 15985111769554130990
11211813 128 18407760344187578911
11456790 92 16057159497292511779
12089408 11 18131353033912735889
12539745 222 18342176632113411681
13811026 1 17531239578872396433
14040221 8 14273728547865102487
14118638 360 17023176085846142625
15198563 99 16805590453398954893
15538507 75 17561092367744471571
16067689 68 18201719570915260983
16991971 28 17676209087277267245
1754911 235 12324242758544749123
17852330 31 17632002157114709378
1818759 1 18410856551240226763
19302320 297 15410889691216665792
20105231 36 18411420566920764830
21867018 265 14273460293161978835
23389318 12 15936414424712348594
2747138 104 17749393672064824209
2851757 41 17822299029008587083
306946 40 7853564687401864446
335507 130 18408036312689305198
4339292 15 18040429988984060315
45377200 153 18411980273715247323
4625314 4 18409445908408625357
5028188 123 18188213104442036333
54039377 194 18040435495496371375
6057620 51 16371009560092778112
636775 8 17603875490045552563

> <PUBCHEM_SHAPE_MULTIPOLES>
745.03
41.8
3.28
1.74
23.21
0.47
0.28
-36.75
-0.35
-1.02
1.84
0.23
0.13
3.86

> <PUBCHEM_SHAPE_SELFOVERLAP>
1626.639

> <PUBCHEM_SHAPE_VOLUME>
406.3

> <PUBCHEM_COORDINATE_TYPE>
2
5
10

$$$$
9549299
  -OEChem-11282412143D

 48 51  0     0  0  0  0  0  0999 V2000
   -7.7265   -2.1388   -0.5627 F   0  0  0  0  0  0  0  0  0  0  0  0
   -6.5520   -1.2263   -2.1413 F   0  0  0  0  0  0  0  0  0  0  0  0
   -5.6635   -2.7526   -0.8726 F   0  0  0  0  0  0  0  0  0  0  0  0
    7.5757   -0.6332   -0.0294 O   0  0  0  0  0  0  0  0  0  0  0  0
    5.2336   -0.8701   -0.0887 N   0  0  0  0  0  0  0  0  0  0  0  0
    1.5493    2.2571   -0.4496 N   0  0  0  0  0  0  0  0  0  0  0  0
   -3.0422    1.5350    0.6638 N   0  0  0  0  0  0  0  0  0  0  0  0
    0.5340    0.1541   -0.9145 N   0  0  0  0  0  0  0  0  0  0  0  0
   -1.7810   -0.2099   -0.3532 N   0  0  0  0  0  0  0  0  0  0  0  0
    6.6942   -2.7968    0.1058 C   0  0  0  0  0  0  0  0  0  0  0  0
    5.9755   -3.4855    1.2123 C   0  0  0  0  0  0  0  0  0  0  0  0
    7.4689   -3.3439    1.2527 C   0  0  0  0  0  0  0  0  0  0  0  0
    6.5573   -1.3108   -0.0120 C   0  0  0  0  0  0  0  0  0  0  0  0
    4.7693    0.4406   -0.2038 C   0  0  0  0  0  0  0  0  0  0  0  0
    3.3987    0.6921   -0.2676 C   0  0  0  0  0  0  0  0  0  0  0  0
    5.6757    1.4995   -0.2558 C   0  0  0  0  0  0  0  0  0  0  0  0
    2.9289    2.0035   -0.3838 C   0  0  0  0  0  0  0  0  0  0  0  0
    5.2118    2.8098   -0.3717 C   0  0  0  0  0  0  0  0  0  0  0  0
    3.8412    3.0613   -0.4355 C   0  0  0  0  0  0  0  0  0  0  0  0
    0.4182    1.4049   -0.4220 C   0  0  0  0  0  0  0  0  0  0  0  0
   -4.3134    0.9472    0.8311 C   0  0  0  0  0  0  0  0  0  0  0  0
   -0.7476    1.9131    0.1135 C   0  0  0  0  0  0  0  0  0  0  0  0
   -1.8328    1.0548    0.1252 C   0  0  0  0  0  0  0  0  0  0  0  0
   -6.0093   -0.6133    0.1060 C   0  0  0  0  0  0  0  0  0  0  0  0
   -4.7528   -0.0310   -0.0608 C   0  0  0  0  0  0  0  0  0  0  0  0
   -5.1305    1.3429    1.8902 C   0  0  0  0  0  0  0  0  0  0  0  0
   -6.8264   -0.2175    1.1648 C   0  0  0  0  0  0  0  0  0  0  0  0
   -6.3869    0.7606    2.0570 C   0  0  0  0  0  0  0  0  0  0  0  0
   -6.4796   -1.6587   -0.8476 C   0  0  0  0  0  0  0  0  0  0  0  0
   -0.5878   -0.5881   -0.8497 C   0  0  0  0  0  0  0  0  0  0  0  0
    6.7853   -3.3218   -0.8391 H   0  0  0  0  0  0  0  0  0  0  0  0
    5.4032   -2.9033    1.9243 H   0  0  0  0  0  0  0  0  0  0  0  0
    5.5678   -4.4696    1.0148 H   0  0  0  0  0  0  0  0  0  0  0  0
    8.0635   -4.2335    1.0844 H   0  0  0  0  0  0  0  0  0  0  0  0
    7.8877   -2.6599    1.9807 H   0  0  0  0  0  0  0  0  0  0  0  0
    4.5111   -1.5864   -0.0647 H   0  0  0  0  0  0  0  0  0  0  0  0
    2.7301   -0.1577   -0.1951 H   0  0  0  0  0  0  0  0  0  0  0  0
    6.7498    1.3839   -0.2121 H   0  0  0  0  0  0  0  0  0  0  0  0
    5.9167    3.6352   -0.4124 H   0  0  0  0  0  0  0  0  0  0  0  0
    3.4947    4.0879   -0.5260 H   0  0  0  0  0  0  0  0  0  0  0  0
    1.3118    3.2421   -0.5278 H   0  0  0  0  0  0  0  0  0  0  0  0
   -0.8090    2.9237    0.5017 H   0  0  0  0  0  0  0  0  0  0  0  0
   -2.9149    2.3598    1.2457 H   0  0  0  0  0  0  0  0  0  0  0  0
   -4.1556   -0.3340   -0.9154 H   0  0  0  0  0  0  0  0  0  0  0  0
   -4.8004    2.1031    2.5936 H   0  0  0  0  0  0  0  0  0  0  0  0
   -7.8081   -0.6593    1.3114 H   0  0  0  0  0  0  0  0  0  0  0  0
   -7.0230    1.0686    2.8818 H   0  0  0  0  0  0  0  0  0  0  0  0
   -0.5233   -1.5970   -1.2382 H   0  0  0  0  0  0  0  0  0  0  0  0
  1 29  1  0  0  0  0
  2 29  1  0  0  0  0
  3 29  1  0  0  0  0
  4 13  2  0  0  0  0
  5 13  1  0  0  0  0
  5 14  1  0  0  0  0
  5 36  1  0  0  0  0
  6 17  1  0  0  0  0
  6 20  1  0  0  0  0
  6 41  1  0  0  0  0
  7 21  1  0  0  0  0
  7 23  1  0  0  0  0
  7 43  1  0  0  0  0
  8 20  2  0  0  0  0
  8 30  1  0  0  0  0
  9 23  1  0  0  0  0
  9 30  2  0  0  0  0
 10 11  1  0  0  0  0
 10 12  1  0  0  0  0
 10 13  1  0  0  0  0
 10 31  1  0  0  0  0
 11 12  1  0  0  0  0
 11 32  1  0  0  0  0
 11 33  1  0  0  0  0
 12 34  1  0  0  0  0
 12 35  1  0  0  0  0
 14 15  1  0  0  0  0
 14 16  2  0  0  0  0
 15 17  2  0  0  0  0
 15 37  1  0  0  0  0
 16 18  1  0  0  0  0
 16 38  1  0  0  0  0
 17 19  1  0  0  0  0
 18 19  2  0  0  0  0
 18 39  1  0  0  0  0
 19 40  1  0  0  0  0
 20 22  1  0  0  0  0
 21 25  1  0  0  0  0
 21 26  2  0  0  0  0
 22 23  2  0  0  0  0
 22 42  1  0  0  0  0
 24 25  2  0  0  0  0
 24 27  1  0  0  0  0
 24 29  1  0  0  0  0
 25 44  1  0  0  0  0
 26 28  1  0  0  0  0
 26 45  1  0  0  0  0
 27 28  2  0  0  0  0
 27 46  1  0  0  0  0
 28 47  1  0  0  0  0
 30 48  1  0  0  0  0
M  END
> <PUBCHEM_COMPOUND_CID>
9549299

> <PUBCHEM_CONFORMER_RMSD>
1

> <PUBCHEM_CONFORMER_DIVERSEORDER>
14
103
40
167
262
127
147
237
84
198
256
105
145
213
227
90
139
239
125
85
174
121
157
206
134
132
220
188
224
152
126
143
115
214
7
173
138
202
100
204
124
68
184
60
176
253
196
112
82
104
193
133
89
136
137
251
190
170
233
261
59
98
191
162
32
245
123
250
135
75
208
52
186
88
260
201
93
67
106
172
43
119
217
159
57
81
146
72
11
148
99
240
171
140
6
114
207
131
263
10
116
244
95
164
203
66
179
265
110
234
20
141
111
264
197
77
130
169
192
16
50
17
15
49
257
235
149
47
165
183
156
226
166
241
4
61
153
199
238
48
92
216
219
248
154
200
181
185
150
18
69
225
120
35
151
64
42
254
194
117
144
178
25
41
168
5
9
44
252
247
101
71
246
255
108
189
22
56
80
62
231
46
160
215
19
209
109
175
221
229
128
51
45
155
107
228
259
163
187
122
8
23
129
182
83
218
118
242
177
58
3
158
249
24
2
53
161
113
91
180
21
31
222
94
102
142
65
210
86
205
13
76
12
211
79
195
78
1
30
26
34
54
70
212
63
223
258
230
55
33
38
236
27
243
36
73
97
74
37
232
96
39
87
29
28

> <PUBCHEM_MMFF94_PARTIAL_CHARGES>
48
1 -0.34
10 -0.1
11 -0.2
12 -0.2
13 0.63
14 0.12
15 -0.15
16 -0.15
17 0.1
18 -0.15
19 -0.15
2 -0.34
20 0.41
21 0.1
22 -0.15
23 0.41
24 -0.14
25 -0.15
26 -0.15
27 -0.15
28 -0.15
29 1.16
3 -0.34
30 0.47
31 0.1
32 0.1
33 0.1
34 0.1
35 0.1
36 0.37
37 0.15
38 0.15
39 0.15
4 -0.57
40 0.15
41 0.4
42 0.15
43 0.4
44 0.15
45 0.15
46 0.15
47 0.15
48 0.15
5 -0.55
6 -0.6
7 -0.6
8 -0.62
9 -0.62

> <PUBCHEM_EFFECTIVE_ROTOR_COUNT>
8.6

> <PUBCHEM_PHARMACOPHORE_FEATURES>
10
1 4 acceptor
1 5 donor
1 6 donor
1 7 cation
1 7 donor
3 6 8 20 cation
3 8 9 30 cation
6 14 15 16 17 18 19 rings
6 21 24 25 26 27 28 rings
6 8 9 20 22 23 30 rings

> <PUBCHEM_HEAVY_ATOM_COUNT>
30

> <PUBCHEM_ATOM_DEF_STEREO_COUNT>
0

> <PUBCHEM_ATOM_UDEF_STEREO_COUNT>
0

> <PUBCHEM_BOND_DEF_STEREO_COUNT>
0

> <PUBCHEM_BOND_UDEF_STEREO_COUNT>
0

> <PUBCHEM_ISOTOPIC_ATOM_COUNT>
0

> <PUBCHEM_COMPONENT_COUNT>
1

> <PUBCHEM_CACTVS_TAUTO_COUNT>
18

> <PUBCHEM_CONFORMER_ID>
0091B5F30000000E

> <PUBCHEM_MMFF94_ENERGY>
104.1356

> <PUBCHEM_FEATURE_SELFOVERLAP>
50.882

> <PUBCHEM_SHAPE_FINGERPRINT>
12107183 9 18342183241212946304
12236239 1 18271530879002097409
13008946 170 18265333001093312268
13533116 47 18335706048727083224
13782708 43 17894630310397625948
14251764 18 18272937154426712124
15183329 4 18338236067520474373
15467298 65 18270673276770196654
1577012 14 18272941539235062217
16993089 31 17386303064200624955
1768 124 18343021056726850302
1979834 28 17560240198998601494
19841028 212 18335697260580573562
20028762 73 18342459214648254966
20165401 70 18410572886220721698
21130935 74 18413390964011885409
21267235 1 18338525145280583820
21315759 40 18272375273487429721
21585481 151 17987244326922041294
21585483 132 18336814360089364307
21682296 61 18187650171631417465
21987483 16 18127408071743676331
22002106 203 18262225622593389970
23081809 10 18343028830148261357
23522609 53 18125192469519742537
23569943 247 18261671459066695075
25242607 90 18267015069563660634
3504750 166 18341896238930291433
3663271 9 18059862787105074865
406291 66 18335700478175846466
4073 2 18191594266517978248
4516262 110 18118404175662541724
4616759 239 16343712006828315387
5104073 3 17917992806189255240
513202 73 18187363186322696213
531348 171 18408602540325466821
54039377 194 18190184491338868342
5718773 13 18335698308990001550
5874358 3 17845632842565014583
6299153 45 18341899597378016775
636783 161 18057027035212051447
9555976 147 17702954612764470937
96874 4 18412822482151532363
9962374 69 18334852832230641162

> <PUBCHEM_SHAPE_MULTIPOLES>
564.79
25.87
3.71
1.31
4.57
1.61
0.26
20.2
3.68
-7.66
0.23
2.63
0.4
-4.75

> <PUBCHEM_SHAPE_SELFOVERLAP>
1226.55

> <PUBCHEM_SHAPE_VOLUME>
307

> <PUBCHEM_COORDINATE_TYPE>
2
5
10

$$$$
25102847
  -OEChem-11282412143D

 61 65  0     0  0  0  0  0  0999 V2000
   -8.4975   -3.9719    0.0428 F   0  0  0  0  0  0  0  0  0  0  0  0
   -2.1164    2.0795    1.6365 O   0  0  0  0  0  0  0  0  0  0  0  0
   -5.8044    1.8644   -0.9326 O   0  0  0  0  0  0  0  0  0  0  0  0
    2.9084   -0.1055   -1.9389 O   0  0  0  0  0  0  0  0  0  0  0  0
    7.1920    1.7784    0.0359 O   0  0  0  0  0  0  0  0  0  0  0  0
    8.1930   -0.2461    1.6555 O   0  0  0  0  0  0  0  0  0  0  0  0
   -2.2005    1.7228   -0.6897 N   0  0  0  0  0  0  0  0  0  0  0  0
   -5.1857    0.4088    0.8057 N   0  0  0  0  0  0  0  0  0  0  0  0
    4.5170   -3.0375    0.5127 N   0  0  0  0  0  0  0  0  0  0  0  0
   -4.1290    2.5391    0.5342 C   0  0  0  0  0  0  0  0  0  0  0  0
   -4.3771    3.9851    0.2200 C   0  0  0  0  0  0  0  0  0  0  0  0
   -4.5635    3.4791    1.6204 C   0  0  0  0  0  0  0  0  0  0  0  0
   -2.7018    2.0885    0.5623 C   0  0  0  0  0  0  0  0  0  0  0  0
   -5.1367    1.5674    0.0486 C   0  0  0  0  0  0  0  0  0  0  0  0
   -0.9208    1.2633   -1.0025 C   0  0  0  0  0  0  0  0  0  0  0  0
   -6.0312   -0.7096    0.6111 C   0  0  0  0  0  0  0  0  0  0  0  0
   -0.5973    0.9440   -2.3214 C   0  0  0  0  0  0  0  0  0  0  0  0
    0.0355    1.1243    0.0033 C   0  0  0  0  0  0  0  0  0  0  0  0
   -5.9510   -1.8031    1.4735 C   0  0  0  0  0  0  0  0  0  0  0  0
   -6.9449   -0.7182   -0.4428 C   0  0  0  0  0  0  0  0  0  0  0  0
    0.6823    0.4858   -2.6343 C   0  0  0  0  0  0  0  0  0  0  0  0
    1.3152    0.6660   -0.3096 C   0  0  0  0  0  0  0  0  0  0  0  0
   -6.7843   -2.9050    1.2820 C   0  0  0  0  0  0  0  0  0  0  0  0
   -7.7783   -1.8201   -0.6344 C   0  0  0  0  0  0  0  0  0  0  0  0
    1.6386    0.3468   -1.6283 C   0  0  0  0  0  0  0  0  0  0  0  0
   -7.6980   -2.9136    0.2279 C   0  0  0  0  0  0  0  0  0  0  0  0
    3.4570   -1.0549   -1.1265 C   0  0  0  0  0  0  0  0  0  0  0  0
    4.6542   -0.8261   -0.4350 C   0  0  0  0  0  0  0  0  0  0  0  0
    5.1553   -1.8589    0.3849 C   0  0  0  0  0  0  0  0  0  0  0  0
    2.7971   -2.2684   -0.9969 C   0  0  0  0  0  0  0  0  0  0  0  0
    5.3465    0.3918   -0.5450 C   0  0  0  0  0  0  0  0  0  0  0  0
    6.3445   -1.6309    1.0718 C   0  0  0  0  0  0  0  0  0  0  0  0
    6.5337    0.5926    0.1532 C   0  0  0  0  0  0  0  0  0  0  0  0
    7.0330   -0.4202    0.9626 C   0  0  0  0  0  0  0  0  0  0  0  0
    3.3644   -3.2182   -0.1719 C   0  0  0  0  0  0  0  0  0  0  0  0
    6.8485    2.8060    0.9640 C   0  0  0  0  0  0  0  0  0  0  0  0
    9.4021   -0.6255    1.0009 C   0  0  0  0  0  0  0  0  0  0  0  0
   -5.2683    4.2805   -0.3210 H   0  0  0  0  0  0  0  0  0  0  0  0
   -3.5256    4.6290    0.0295 H   0  0  0  0  0  0  0  0  0  0  0  0
   -3.8520    3.8143    2.3657 H   0  0  0  0  0  0  0  0  0  0  0  0
   -5.5782    3.4074    1.9959 H   0  0  0  0  0  0  0  0  0  0  0  0
   -2.8391    1.8009   -1.4784 H   0  0  0  0  0  0  0  0  0  0  0  0
   -4.5515    0.3378    1.5985 H   0  0  0  0  0  0  0  0  0  0  0  0
   -1.3327    1.0476   -3.1153 H   0  0  0  0  0  0  0  0  0  0  0  0
   -0.1394    1.3554    1.0449 H   0  0  0  0  0  0  0  0  0  0  0  0
   -5.2433   -1.8092    2.2986 H   0  0  0  0  0  0  0  0  0  0  0  0
   -7.0644    0.0901   -1.1506 H   0  0  0  0  0  0  0  0  0  0  0  0
    0.9292    0.2386   -3.6631 H   0  0  0  0  0  0  0  0  0  0  0  0
    2.0462    0.5843    0.4902 H   0  0  0  0  0  0  0  0  0  0  0  0
   -6.7220   -3.7567    1.9529 H   0  0  0  0  0  0  0  0  0  0  0  0
   -8.4900   -1.8285   -1.4549 H   0  0  0  0  0  0  0  0  0  0  0  0
    4.9675    1.1934   -1.1757 H   0  0  0  0  0  0  0  0  0  0  0  0
    1.8752   -2.4849   -1.5254 H   0  0  0  0  0  0  0  0  0  0  0  0
    6.7503   -2.4134    1.7117 H   0  0  0  0  0  0  0  0  0  0  0  0
    2.8950   -4.1866   -0.0338 H   0  0  0  0  0  0  0  0  0  0  0  0
    7.4612    3.6847    0.7444 H   0  0  0  0  0  0  0  0  0  0  0  0
    7.0541    2.4832    1.9895 H   0  0  0  0  0  0  0  0  0  0  0  0
    5.7937    3.0794    0.8599 H   0  0  0  0  0  0  0  0  0  0  0  0
   10.2365   -0.4210    1.6772 H   0  0  0  0  0  0  0  0  0  0  0  0
    9.5435   -0.0434    0.0848 H   0  0  0  0  0  0  0  0  0  0  0  0
    9.3932   -1.6953    0.7692 H   0  0  0  0  0  0  0  0  0  0  0  0
  1 26  1  0  0  0  0
  2 13  2  0  0  0  0
  3 14  2  0  0  0  0
  4 25  1  0  0  0  0
  4 27  1  0  0  0  0
  5 33  1  0  0  0  0
  5 36  1  0  0  0  0
  6 34  1  0  0  0  0
  6 37  1  0  0  0  0
  7 13  1  0  0  0  0
  7 15  1  0  0  0  0
  7 42  1  0  0  0  0
  8 14  1  0  0  0  0
  8 16  1  0  0  0  0
  8 43  1  0  0  0  0
  9 29  2  0  0  0  0
  9 35  1  0  0  0  0
 10 11  1  0  0  0  0
 10 12  1  0  0  0  0
 10 13  1  0  0  0  0
 10 14  1  0  0  0  0
 11 12  1  0  0  0  0
 11 38  1  0  0  0  0
 11 39  1  0  0  0  0
 12 40  1  0  0  0  0
 12 41  1  0  0  0  0
 15 17  2  0  0  0  0
 15 18  1  0  0  0  0
 16 19  2  0  0  0  0
 16 20  1  0  0  0  0
 17 21  1  0  0  0  0
 17 44  1  0  0  0  0
 18 22  2  0  0  0  0
 18 45  1  0  0  0  0
 19 23  1  0  0  0  0
 19 46  1  0  0  0  0
 20 24  2  0  0  0  0
 20 47  1  0  0  0  0
 21 25  2  0  0  0  0
 21 48  1  0  0  0  0
 22 25  1  0  0  0  0
 22 49  1  0  0  0  0
 23 26  2  0  0  0  0
 23 50  1  0  0  0  0
 24 26  1  0  0  0  0
 24 51  1  0  0  0  0
 27 28  2  0  0  0  0
 27 30  1  0  0  0  0
 28 29  1  0  0  0  0
 28 31  1  0  0  0  0
 29 32  1  0  0  0  0
 30 35  2  0  0  0  0
 30 53  1  0  0  0  0
 31 33  2  0  0  0  0
 31 52  1  0  0  0  0
 32 34  2  0  0  0  0
 32 54  1  0  0  0  0
 33 34  1  0  0  0  0
 35 55  1  0  0  0  0
 36 56  1  0  0  0  0
 36 57  1  0  0  0  0
 36 58  1  0  0  0  0
 37 59  1  0  0  0  0
 37 60  1  0  0  0  0
 37 61  1  0  0  0  0
M  END
> <PUBCHEM_COMPOUND_CID>
25102847

> <PUBCHEM_CONFORMER_RMSD>
1.2

> <PUBCHEM_CONFORMER_DIVERSEORDER>
1
44
72
52
24
81
67
77
25
50
56
75
59
37
61
13
45
85
42
73
15
54
27
55
66
87
76
68
38
10
36
5
53
51
48
64
82
7
63
19
6
40
43
60
8
69
49
74
35
70
30
62
2
83
18
32
79
33
21
16
39
71
22
47
11
31
9
23
86
78
58
29
57
12
80
34
14
41
84
46
65
3
20
26
28
4
17

> <PUBCHEM_MMFF94_PARTIAL_CHARGES>
53
1 -0.19
11 -0.2
12 -0.2
13 0.63
14 0.63
15 0.12
16 0.12
17 -0.15
18 -0.15
19 -0.15
2 -0.57
20 -0.15
21 -0.15
22 -0.15
23 -0.15
24 -0.15
25 0.08
26 0.19
27 0.08
29 0.31
3 -0.57
30 -0.15
31 -0.15
32 -0.15
33 0.08
34 0.08
35 0.16
36 0.28
37 0.28
38 0.1
39 0.1
4 -0.17
40 0.1
41 0.1
42 0.37
43 0.37
44 0.15
45 0.15
46 0.15
47 0.15
48 0.15
49 0.15
5 -0.36
50 0.15
51 0.15
52 0.15
53 0.15
54 0.15
55 0.15
6 -0.36
7 -0.55
8 -0.55
9 -0.62

> <PUBCHEM_EFFECTIVE_ROTOR_COUNT>
10.6

> <PUBCHEM_PHARMACOPHORE_FEATURES>
12
1 2 acceptor
1 3 acceptor
1 4 acceptor
1 5 acceptor
1 6 acceptor
1 7 donor
1 8 donor
1 9 acceptor
6 15 17 18 21 22 25 rings
6 16 19 20 23 24 26 rings
6 28 29 31 32 33 34 rings
6 9 27 28 29 30 35 rings

> <PUBCHEM_HEAVY_ATOM_COUNT>
37

> <PUBCHEM_ATOM_DEF_STEREO_COUNT>
0

> <PUBCHEM_ATOM_UDEF_STEREO_COUNT>
0

> <PUBCHEM_BOND_DEF_STEREO_COUNT>
0

> <PUBCHEM_BOND_UDEF_STEREO_COUNT>
0

> <PUBCHEM_ISOTOPIC_ATOM_COUNT>
0

> <PUBCHEM_COMPONENT_COUNT>
1

> <PUBCHEM_CACTVS_TAUTO_COUNT>
4

> <PUBCHEM_CONFORMER_ID>
017F09FF00000001

> <PUBCHEM_MMFF94_ENERGY>
142.2772

> <PUBCHEM_FEATURE_SELFOVERLAP>
60.936

> <PUBCHEM_SHAPE_FINGERPRINT>
10 15 17560514015009561676
10100884 174 18261953071899441179
10254770 206 18270683199220589167
10391435 84 18408600358265302295
10674148 151 10663814175175499710
10939801 23 18270682081541940566
11135926 11 13912606009616802905
11273773 118 8862938408014970989
11456790 92 18129930201863806560
12013929 94 18337675312675272840
12373685 5 18187655695465905581
12596602 18 18199751349599320512
13383668 1 18198900504368243055
14168556 18 18342174509259363184
14461889 52 18342176644370032970
14664723 55 8790893982421034527
15064981 113 12973873815465172755
15150950 15 18058445564494846456
15183329 4 10953744382954270444
15274700 208 17058923554350216922
15519825 34 18335415777045277994
15781502 593 18410283693018761642
16992727 255 9655578517341299471
19303781 99 18188771794743032551
19611394 137 18202566206571824088
20105231 36 17968936376837170922
21130935 74 18339642214344561514
21223535 225 15213293090009816653
21585480 29 18408609145024942147
21987483 16 18187079611412582274
2835447 4 18410291367803774474
3004659 81 11963689794070025844
3504750 166 17898569774434144693
3663271 9 18340488855076651328
38570 142 11672066333091656311
397830 11 18343023246584872492
4144715 1 17912937088526857840
4149490 64 17677627526386770329
42767 24 16732982016329367183
437795 139 18333456448010181695
437795 163 18410856598579630887
4394409 98 13912326784780449608
4403749 210 18201431429437183021
4408954 87 18272929474851984422
4625314 4 18338235938608398892
4874694 18 18265327322871090381
5080951 261 18201156565085164061
5109719 28 17917715746950913488
6697151 62 15285362855125705516
6703917 75 13254503301862212773
9555976 147 18200042728797743289
9689198 14 12175628394873816495

> <PUBCHEM_SHAPE_MULTIPOLES>
709.88
28.5
4.37
1.74
4.61
0.2
0.68
14.66
-11.89
-7.92
-1.44
0.44
-0.33
0.17

> <PUBCHEM_SHAPE_SELFOVERLAP>
1564.689

> <PUBCHEM_SHAPE_VOLUME>
383.6

> <PUBCHEM_COORDINATE_TYPE>
2
5
10

$$$$
52920501
  -OEChem-11282412143D

 62 65  0     0  0  0  0  0  0999 V2000
    1.7992   -1.5357   -1.2210 S   0  0  0  0  0  0  0  0  0  0  0  0
    2.2850   -2.8884   -1.4430 O   0  0  0  0  0  0  0  0  0  0  0  0
    0.7716   -0.9772   -2.0861 O   0  0  0  0  0  0  0  0  0  0  0  0
   -3.2195    1.8316   -1.6126 O   0  0  0  0  0  0  0  0  0  0  0  0
    3.1220   -0.4524   -1.1978 N   0  0  0  0  0  0  0  0  0  0  0  0
    6.5459   -0.2891    0.2781 N   0  0  0  0  0  0  0  0  0  0  0  0
    1.7183    3.0390    0.4408 N   0  0  0  0  0  0  0  0  0  0  0  0
   -3.6257   -2.0808    0.9194 N   0  0  0  0  0  0  0  0  0  0  0  0
   -3.4111   -0.1208   -0.3530 N   0  0  0  0  0  0  0  0  0  0  0  0
   -5.5077   -0.6992    0.6851 N   0  0  0  0  0  0  0  0  0  0  0  0
    1.2323   -1.4122    0.4445 C   0  0  0  0  0  0  0  0  0  0  0  0
    4.1653   -0.6203   -0.1702 C   0  0  0  0  0  0  0  0  0  0  0  0
    5.5023   -0.1577   -0.7306 C   0  0  0  0  0  0  0  0  0  0  0  0
    0.0552   -2.3154    0.5968 C   0  0  0  0  0  0  0  0  0  0  0  0
   -1.2289   -1.7781    0.6865 C   0  0  0  0  0  0  0  0  0  0  0  0
   -0.4846    2.7542    0.6491 C   0  0  0  0  0  0  0  0  0  0  0  0
    0.5777    2.7100   -0.2564 C   0  0  0  0  0  0  0  0  0  0  0  0
    0.2384   -3.6973    0.6501 C   0  0  0  0  0  0  0  0  0  0  0  0
   -2.3299   -2.6224    0.8294 C   0  0  0  0  0  0  0  0  0  0  0  0
    1.4146    3.2892    1.7521 C   0  0  0  0  0  0  0  0  0  0  0  0
    0.0584    3.1209    1.9123 C   0  0  0  0  0  0  0  0  0  0  0  0
   -1.7817    2.4546    0.1878 C   0  0  0  0  0  0  0  0  0  0  0  0
    6.9962   -1.6788    0.3771 C   0  0  0  0  0  0  0  0  0  0  0  0
    7.6760    0.5891   -0.0310 C   0  0  0  0  0  0  0  0  0  0  0  0
   -0.8626   -4.5416    0.7931 C   0  0  0  0  0  0  0  0  0  0  0  0
   -2.1468   -4.0043    0.8825 C   0  0  0  0  0  0  0  0  0  0  0  0
    0.4067    2.3798   -1.6055 C   0  0  0  0  0  0  0  0  0  0  0  0
   -1.9679    2.1230   -1.1592 C   0  0  0  0  0  0  0  0  0  0  0  0
   -0.8890    2.0868   -2.0403 C   0  0  0  0  0  0  0  0  0  0  0  0
    2.4594    3.6656    2.7219 C   0  0  0  0  0  0  0  0  0  0  0  0
   -4.2104   -0.9091    0.3911 C   0  0  0  0  0  0  0  0  0  0  0  0
   -4.0019    0.9893   -0.8416 C   0  0  0  0  0  0  0  0  0  0  0  0
   -5.3224    1.3188   -0.6136 C   0  0  0  0  0  0  0  0  0  0  0  0
   -6.0341    0.4287    0.1644 C   0  0  0  0  0  0  0  0  0  0  0  0
    0.9781   -0.3677    0.6466 H   0  0  0  0  0  0  0  0  0  0  0  0
    2.0265   -1.7210    1.1296 H   0  0  0  0  0  0  0  0  0  0  0  0
    3.8906   -0.0264    0.7091 H   0  0  0  0  0  0  0  0  0  0  0  0
    4.2152   -1.6731    0.1223 H   0  0  0  0  0  0  0  0  0  0  0  0
    5.7522   -0.6946   -1.6556 H   0  0  0  0  0  0  0  0  0  0  0  0
    5.3855    0.8971   -1.0162 H   0  0  0  0  0  0  0  0  0  0  0  0
    2.9087    0.5316   -1.4076 H   0  0  0  0  0  0  0  0  0  0  0  0
   -1.3350   -0.6986    0.6870 H   0  0  0  0  0  0  0  0  0  0  0  0
    1.2319   -4.1343    0.6045 H   0  0  0  0  0  0  0  0  0  0  0  0
   -0.4873    3.2471    2.8377 H   0  0  0  0  0  0  0  0  0  0  0  0
    2.6449    3.0856    0.0394 H   0  0  0  0  0  0  0  0  0  0  0  0
   -2.6154    2.5046    0.8825 H   0  0  0  0  0  0  0  0  0  0  0  0
    7.3963   -2.0542   -0.5721 H   0  0  0  0  0  0  0  0  0  0  0  0
    7.7838   -1.7689    1.1343 H   0  0  0  0  0  0  0  0  0  0  0  0
    6.1918   -2.3455    0.7020 H   0  0  0  0  0  0  0  0  0  0  0  0
    8.4498    0.5075    0.7405 H   0  0  0  0  0  0  0  0  0  0  0  0
    8.1286    0.3530   -1.0010 H   0  0  0  0  0  0  0  0  0  0  0  0
    7.3586    1.6379   -0.0426 H   0  0  0  0  0  0  0  0  0  0  0  0
   -0.7197   -5.6173    0.8396 H   0  0  0  0  0  0  0  0  0  0  0  0
   -2.9964   -4.6733    0.9937 H   0  0  0  0  0  0  0  0  0  0  0  0
    1.2462    2.3502   -2.2919 H   0  0  0  0  0  0  0  0  0  0  0  0
   -1.0494    1.8257   -3.0837 H   0  0  0  0  0  0  0  0  0  0  0  0
   -4.3093   -2.6944    1.3525 H   0  0  0  0  0  0  0  0  0  0  0  0
    3.2224    2.8834    2.7920 H   0  0  0  0  0  0  0  0  0  0  0  0
    2.9483    4.5982    2.4219 H   0  0  0  0  0  0  0  0  0  0  0  0
    2.0369    3.8134    3.7210 H   0  0  0  0  0  0  0  0  0  0  0  0
   -5.7759    2.2155   -1.0155 H   0  0  0  0  0  0  0  0  0  0  0  0
   -7.0790    0.6034    0.3979 H   0  0  0  0  0  0  0  0  0  0  0  0
  1  2  2  0  0  0  0
  1  3  2  0  0  0  0
  1  5  1  0  0  0  0
  1 11  1  0  0  0  0
  4 28  1  0  0  0  0
  4 32  1  0  0  0  0
  5 12  1  0  0  0  0
  5 41  1  0  0  0  0
  6 13  1  0  0  0  0
  6 23  1  0  0  0  0
  6 24  1  0  0  0  0
  7 17  1  0  0  0  0
  7 20  1  0  0  0  0
  7 45  1  0  0  0  0
  8 19  1  0  0  0  0
  8 31  1  0  0  0  0
  8 57  1  0  0  0  0
  9 31  1  0  0  0  0
  9 32  2  0  0  0  0
 10 31  2  0  0  0  0
 10 34  1  0  0  0  0
 11 14  1  0  0  0  0
 11 35  1  0  0  0  0
 11 36  1  0  0  0  0
 12 13  1  0  0  0  0
 12 37  1  0  0  0  0
 12 38  1  0  0  0  0
 13 39  1  0  0  0  0
 13 40  1  0  0  0  0
 14 15  2  0  0  0  0
 14 18  1  0  0  0  0
 15 19  1  0  0  0  0
 15 42  1  0  0  0  0
 16 17  2  0  0  0  0
 16 21  1  0  0  0  0
 16 22  1  0  0  0  0
 17 27  1  0  0  0  0
 18 25  2  0  0  0  0
 18 43  1  0  0  0  0
 19 26  2  0  0  0  0
 20 21  2  0  0  0  0
 20 30  1  0  0  0  0
 21 44  1  0  0  0  0
 22 28  2  0  0  0  0
 22 46  1  0  0  0  0
 23 47  1  0  0  0  0
 23 48  1  0  0  0  0
 23 49  1  0  0  0  0
 24 50  1  0  0  0  0
 24 51  1  0  0  0  0
 24 52  1  0  0  0  0
 25 26  1  0  0  0  0
 25 53  1  0  0  0  0
 26 54  1  0  0  0  0
 27 29  2  0  0  0  0
 27 55  1  0  0  0  0
 28 29  1  0  0  0  0
 29 56  1  0  0  0  0
 30 58  1  0  0  0  0
 30 59  1  0  0  0  0
 30 60  1  0  0  0  0
 32 33  1  0  0  0  0
 33 34  2  0  0  0  0
 33 61  1  0  0  0  0
 34 62  1  0  0  0  0
M  END
> <PUBCHEM_COMPOUND_CID>
52920501

> <PUBCHEM_CONFORMER_RMSD>
1.4

> <PUBCHEM_CONFORMER_DIVERSEORDER>
1
123
114
91
8
30
46
18
134
94
140
13
98
150
62
53
59
50
108
34
77
20
116
65
97
109
104
152
88
133
5
56
118
105
92
23
106
75
70
141
32
112
40
16
155
51
79
127
110
102
3
87
124
143
117
61
45
49
145
19
42
4
149
57
115
52
142
25
93
119
153
66
60
86
68
27
132
26
89
43
37
113
14
81
44
24
36
55
21
96
22
69
137
111
74
80
84
138
83
122
139
9
15
31
146
71
101
130
151
100
11
148
126
85
58
144
12
29
128
121
135
2
129
64
35
72
39
90
78
156
7
76
95
38
103
48
136
82
10
73
125
41
107
131
33
63
147
17
28
157
67
6
120
99
154
54
47

> <PUBCHEM_MMFF94_PARTIAL_CHARGES>
46
1 1.33
10 -0.62
11 0.25
12 0.36
13 0.27
14 -0.14
15 -0.15
17 -0.15
18 -0.15
19 0.1
2 -0.65
20 -0.33
21 -0.15
22 -0.15
23 0.27
24 0.27
25 -0.15
26 -0.15
27 -0.15
28 0.08
29 -0.15
3 -0.65
30 0.18
31 0.72
32 0.39
33 -0.15
34 0.16
4 -0.17
41 0.42
42 0.15
43 0.15
44 0.15
45 0.27
46 0.15
5 -0.91
53 0.15
54 0.15
55 0.15
56 0.15
57 0.4
6 -0.81
61 0.15
62 0.15
7 0.03
8 -0.6
9 -0.62

> <PUBCHEM_EFFECTIVE_ROTOR_COUNT>
10

> <PUBCHEM_PHARMACOPHORE_FEATURES>
12
1 2 acceptor
1 3 acceptor
1 5 donor
1 6 cation
1 7 cation
1 7 donor
1 8 donor
4 8 9 10 31 cation
5 7 16 17 20 21 rings
6 14 15 18 19 25 26 rings
6 16 17 22 27 28 29 rings
6 9 10 31 32 33 34 rings

> <PUBCHEM_HEAVY_ATOM_COUNT>
34

> <PUBCHEM_ATOM_DEF_STEREO_COUNT>
0

> <PUBCHEM_ATOM_UDEF_STEREO_COUNT>
0

> <PUBCHEM_BOND_DEF_STEREO_COUNT>
0

> <PUBCHEM_BOND_UDEF_STEREO_COUNT>
0

> <PUBCHEM_ISOTOPIC_ATOM_COUNT>
0

> <PUBCHEM_COMPONENT_COUNT>
1

> <PUBCHEM_CACTVS_TAUTO_COUNT>
3

> <PUBCHEM_CONFORMER_ID>
032780B500000001

> <PUBCHEM_MMFF94_ENERGY>
86.9377

> <PUBCHEM_FEATURE_SELFOVERLAP>
61.006

> <PUBCHEM_SHAPE_FINGERPRINT>
10290309 65 18262797341762077927
10675989 125 16964060610966721909
11170278 141 17755310302530868738
11513181 2 17769651241481948766
12156800 1 17025959035612261268
12422481 6 18050829302998610056
12717326 68 17331382685620401858
13165054 342 18041822013976472920
13402501 40 18410012147594572484
13751561 76 18058991944843319008
14040221 97 18192429900167838628
14040222 383 18409448077572780073
14725015 67 18263645220568465723
14747282 125 18267000878342868530
14787075 74 18340762646341052092
14932702 115 18120403048466053156
20764821 26 18044382857882405455
22223350 30 18192999433107970138
23559900 14 18337387253087183077
238918 7 17838615913658390969
392239 28 18340774753832610456
469060 322 17969523527469652765
50150288 127 16913411702195348497
508706 21 18119242007437110435
5171179 24 18055626472071995938
6371380 46 18411413995525902017

> <PUBCHEM_SHAPE_MULTIPOLES>
656.06
12.63
5.84
1.81
16.33
1.81
-0.11
1.72
0.49
-0.77
-2.8
0.44
-1.52
2.75

> <PUBCHEM_SHAPE_SELFOVERLAP>
1397.396

> <PUBCHEM_SHAPE_VOLUME>
368.5

> <PUBCHEM_COORDINATE_TYPE>
2
5
10

$$$$
9915743
  -OEChem-11282412143D

 69 72  0     0  0  0  0  0  0999 V2000
    2.7423    2.2330   -2.0800 Cl  0  0  0  0  0  0  0  0  0  0  0  0
   -5.2110   -1.2219   -1.6382 O   0  0  0  0  0  0  0  0  0  0  0  0
    4.4455    1.5897    0.3125 O   0  0  0  0  0  0  0  0  0  0  0  0
   -1.1114   -1.8983    1.3133 O   0  0  0  0  0  0  0  0  0  0  0  0
   -0.9325    2.4009    1.4816 N   0  0  0  0  0  0  0  0  0  0  0  0
   -4.2514    3.3731   -0.9038 N   0  0  0  0  0  0  0  0  0  0  0  0
   -3.0181   -1.9879   -0.0623 N   0  0  0  0  0  0  0  0  0  0  0  0
    0.2761   -6.7173    0.8689 N   0  0  0  0  0  0  0  0  0  0  0  0
   -1.0023    6.0023    1.4655 N   0  0  0  0  0  0  0  0  0  0  0  0
    7.3476    0.4095    0.1272 N   0  0  0  0  0  0  0  0  0  0  0  0
   -2.8350    1.7035    0.1031 C   0  0  0  0  0  0  0  0  0  0  0  0
   -2.0554    2.7183    0.6745 C   0  0  0  0  0  0  0  0  0  0  0  0
   -3.9389    2.0810   -0.6899 C   0  0  0  0  0  0  0  0  0  0  0  0
   -2.5380    0.3451    0.3056 C   0  0  0  0  0  0  0  0  0  0  0  0
   -3.3292   -0.6427   -0.2739 C   0  0  0  0  0  0  0  0  0  0  0  0
   -4.4178   -0.2782   -1.0563 C   0  0  0  0  0  0  0  0  0  0  0  0
   -4.7129    1.0725   -1.2574 C   0  0  0  0  0  0  0  0  0  0  0  0
   -2.3749    4.0506    0.4559 C   0  0  0  0  0  0  0  0  0  0  0  0
    0.4220    2.1976    1.1790 C   0  0  0  0  0  0  0  0  0  0  0  0
   -3.4735    4.3220   -0.3342 C   0  0  0  0  0  0  0  0  0  0  0  0
    0.8734    2.3004   -0.1408 C   0  0  0  0  0  0  0  0  0  0  0  0
    1.3327    1.8904    2.1954 C   0  0  0  0  0  0  0  0  0  0  0  0
   -6.5804   -0.8808   -1.8409 C   0  0  0  0  0  0  0  0  0  0  0  0
   -1.9650   -2.5207    0.6925 C   0  0  0  0  0  0  0  0  0  0  0  0
    3.1236    1.7923    0.5768 C   0  0  0  0  0  0  0  0  0  0  0  0
    2.2204    2.0983   -0.4412 C   0  0  0  0  0  0  0  0  0  0  0  0
    2.6797    1.6882    1.8951 C   0  0  0  0  0  0  0  0  0  0  0  0
   -1.6175    5.1275    1.0130 C   0  0  0  0  0  0  0  0  0  0  0  0
   -0.9984   -6.2083    1.3650 C   0  0  0  0  0  0  0  0  0  0  0  0
   -1.9743   -4.0138    0.6717 C   0  0  0  0  0  0  0  0  0  0  0  0
   -1.0413   -4.7095    1.3369 C   0  0  0  0  0  0  0  0  0  0  0  0
   -7.4164   -2.1416   -1.7840 C   0  0  0  0  0  0  0  0  0  0  0  0
    4.9859    0.3152    0.6540 C   0  0  0  0  0  0  0  0  0  0  0  0
    0.4985   -6.2881   -0.5125 C   0  0  0  0  0  0  0  0  0  0  0  0
    0.3178   -8.1773    0.9608 C   0  0  0  0  0  0  0  0  0  0  0  0
    6.1254    0.0026   -0.2708 C   0  0  0  0  0  0  0  0  0  0  0  0
    5.8668   -0.6682   -1.4509 C   0  0  0  0  0  0  0  0  0  0  0  0
    6.9443   -0.9426   -2.2857 C   0  0  0  0  0  0  0  0  0  0  0  0
    8.3704    0.1251   -0.7099 C   0  0  0  0  0  0  0  0  0  0  0  0
    8.2233   -0.5418   -1.9154 C   0  0  0  0  0  0  0  0  0  0  0  0
   -1.6875    0.1092    0.9256 H   0  0  0  0  0  0  0  0  0  0  0  0
   -5.5407    1.3807   -1.8928 H   0  0  0  0  0  0  0  0  0  0  0  0
   -1.1709    2.2997    2.4639 H   0  0  0  0  0  0  0  0  0  0  0  0
   -3.7836    5.3409   -0.5487 H   0  0  0  0  0  0  0  0  0  0  0  0
   -3.6463   -2.6446   -0.5211 H   0  0  0  0  0  0  0  0  0  0  0  0
    0.1790    2.5380   -0.9437 H   0  0  0  0  0  0  0  0  0  0  0  0
    1.0016    1.8079    3.2277 H   0  0  0  0  0  0  0  0  0  0  0  0
   -6.6938   -0.4085   -2.8230 H   0  0  0  0  0  0  0  0  0  0  0  0
   -6.9551   -0.2067   -1.0604 H   0  0  0  0  0  0  0  0  0  0  0  0
    3.3719    1.4595    2.7008 H   0  0  0  0  0  0  0  0  0  0  0  0
   -1.8393   -6.6342    0.8012 H   0  0  0  0  0  0  0  0  0  0  0  0
   -1.1315   -6.5150    2.4104 H   0  0  0  0  0  0  0  0  0  0  0  0
   -2.7491   -4.5209    0.1062 H   0  0  0  0  0  0  0  0  0  0  0  0
   -0.2729   -4.1932    1.9076 H   0  0  0  0  0  0  0  0  0  0  0  0
   -8.4745   -1.9179   -1.9461 H   0  0  0  0  0  0  0  0  0  0  0  0
   -7.0865   -2.8574   -2.5442 H   0  0  0  0  0  0  0  0  0  0  0  0
   -7.3041   -2.6353   -0.8129 H   0  0  0  0  0  0  0  0  0  0  0  0
    5.3525    0.3511    1.6870 H   0  0  0  0  0  0  0  0  0  0  0  0
    4.2256   -0.4752    0.5952 H   0  0  0  0  0  0  0  0  0  0  0  0
    0.6298   -5.2037   -0.5902 H   0  0  0  0  0  0  0  0  0  0  0  0
   -0.3165   -6.5934   -1.1793 H   0  0  0  0  0  0  0  0  0  0  0  0
    1.4280   -6.7227   -0.8995 H   0  0  0  0  0  0  0  0  0  0  0  0
    1.2940   -8.5557    0.6372 H   0  0  0  0  0  0  0  0  0  0  0  0
   -0.4570   -8.6535    0.3489 H   0  0  0  0  0  0  0  0  0  0  0  0
    0.1857   -8.5017    1.9991 H   0  0  0  0  0  0  0  0  0  0  0  0
    4.8646   -0.9737   -1.7308 H   0  0  0  0  0  0  0  0  0  0  0  0
    6.7877   -1.4671   -3.2234 H   0  0  0  0  0  0  0  0  0  0  0  0
    9.3471    0.4590   -0.3755 H   0  0  0  0  0  0  0  0  0  0  0  0
    9.0778   -0.7449   -2.5506 H   0  0  0  0  0  0  0  0  0  0  0  0
  1 26  1  0  0  0  0
  2 16  1  0  0  0  0
  2 23  1  0  0  0  0
  3 25  1  0  0  0  0
  3 33  1  0  0  0  0
  4 24  2  0  0  0  0
  5 12  1  0  0  0  0
  5 19  1  0  0  0  0
  5 43  1  0  0  0  0
  6 13  1  0  0  0  0
  6 20  2  0  0  0  0
  7 15  1  0  0  0  0
  7 24  1  0  0  0  0
  7 45  1  0  0  0  0
  8 29  1  0  0  0  0
  8 34  1  0  0  0  0
  8 35  1  0  0  0  0
  9 28  3  0  0  0  0
 10 36  1  0  0  0  0
 10 39  2  0  0  0  0
 11 12  1  0  0  0  0
 11 13  1  0  0  0  0
 11 14  2  0  0  0  0
 12 18  2  0  0  0  0
 13 17  2  0  0  0  0
 14 15  1  0  0  0  0
 14 41  1  0  0  0  0
 15 16  2  0  0  0  0
 16 17  1  0  0  0  0
 17 42  1  0  0  0  0
 18 20  1  0  0  0  0
 18 28  1  0  0  0  0
 19 21  2  0  0  0  0
 19 22  1  0  0  0  0
 20 44  1  0  0  0  0
 21 26  1  0  0  0  0
 21 46  1  0  0  0  0
 22 27  2  0  0  0  0
 22 47  1  0  0  0  0
 23 32  1  0  0  0  0
 23 48  1  0  0  0  0
 23 49  1  0  0  0  0
 24 30  1  0  0  0  0
 25 26  2  0  0  0  0
 25 27  1  0  0  0  0
 27 50  1  0  0  0  0
 29 31  1  0  0  0  0
 29 51  1  0  0  0  0
 29 52  1  0  0  0  0
 30 31  2  0  0  0  0
 30 53  1  0  0  0  0
 31 54  1  0  0  0  0
 32 55  1  0  0  0  0
 32 56  1  0  0  0  0
 32 57  1  0  0  0  0
 33 36  1  0  0  0  0
 33 58  1  0  0  0  0
 33 59  1  0  0  0  0
 34 60  1  0  0  0  0
 34 61  1  0  0  0  0
 34 62  1  0  0  0  0
 35 63  1  0  0  0  0
 35 64  1  0  0  0  0
 35 65  1  0  0  0  0
 36 37  2  0  0  0  0
 37 38  1  0  0  0  0
 37 66  1  0  0  0  0
 38 40  2  0  0  0  0
 38 67  1  0  0  0  0
 39 40  1  0  0  0  0
 39 68  1  0  0  0  0
 40 69  1  0  0  0  0
M  END
> <PUBCHEM_COMPOUND_CID>
9915743

> <PUBCHEM_CONFORMER_RMSD>
1.2

> <PUBCHEM_CONFORMER_DIVERSEORDER>
1
11
10
2
9
18
7
5
13
16
4
15
17
12
3
6
8
14

> <PUBCHEM_MMFF94_PARTIAL_CHARGES>
52
1 -0.18
10 -0.62
12 0.1
13 0.31
14 -0.15
15 0.12
16 0.08
17 -0.15
18 0.07
19 0.1
2 -0.36
20 0.16
21 -0.15
22 -0.15
23 0.28
24 0.62
25 0.08
26 0.18
27 -0.15
28 0.48
29 0.41
3 -0.36
30 -0.14
31 -0.29
33 0.42
34 0.27
35 0.27
36 0.17
37 -0.15
38 -0.15
39 0.16
4 -0.57
40 -0.15
41 0.15
42 0.15
43 0.4
44 0.15
45 0.37
46 0.15
47 0.15
5 -0.6
50 0.15
53 0.15
54 0.15
6 -0.62
66 0.15
67 0.15
68 0.15
69 0.15
7 -0.55
8 -0.81
9 -0.56

> <PUBCHEM_EFFECTIVE_ROTOR_COUNT>
12

> <PUBCHEM_PHARMACOPHORE_FEATURES>
14
1 10 acceptor
1 2 acceptor
1 3 acceptor
1 4 acceptor
1 5 cation
1 5 donor
1 6 acceptor
1 7 donor
1 8 cation
1 9 acceptor
6 10 36 37 38 39 40 rings
6 11 13 14 15 16 17 rings
6 19 21 22 25 26 27 rings
6 6 11 12 13 18 20 rings

> <PUBCHEM_HEAVY_ATOM_COUNT>
40

> <PUBCHEM_ATOM_DEF_STEREO_COUNT>
0

> <PUBCHEM_ATOM_UDEF_STEREO_COUNT>
0

> <PUBCHEM_BOND_DEF_STEREO_COUNT>
1

> <PUBCHEM_BOND_UDEF_STEREO_COUNT>
0

> <PUBCHEM_ISOTOPIC_ATOM_COUNT>
0

> <PUBCHEM_COMPONENT_COUNT>
1

> <PUBCHEM_CACTVS_TAUTO_COUNT>
6

> <PUBCHEM_CONFORMER_ID>
00974D5F00000001

> <PUBCHEM_MMFF94_ENERGY>
146.5911

> <PUBCHEM_FEATURE_SELFOVERLAP>
71.081

> <PUBCHEM_SHAPE_FINGERPRINT>
10940486 97 18187091693393183524
14444916 359 18338811030660829827
15351339 4 18338790109585558754
15927050 60 18126283035410525217
17627616 140 18050288072293773115
19301676 85 18195240238064087127
20775438 99 17333055008794209413
24771750 20 17186158670291804773
3383291 50 18337105773746537331
392239 28 11671772772082729532
4394409 98 18260268529668893710
49967989 163 18266203741534661894
5265222 85 18409170974319369176

> <PUBCHEM_SHAPE_MULTIPOLES>
777.56
17.24
10.84
1.98
30.36
23.44
0.37
0.05
14.95
-8.27
-6.3
0.6
0.01
0.19

> <PUBCHEM_SHAPE_SELFOVERLAP>
1662.087

> <PUBCHEM_SHAPE_VOLUME>
431.3

> <PUBCHEM_COORDINATE_TYPE>
2
5
10

$$$$
86705695
  -OEChem-11282412143D

 62 66  0     0  0  0  0  0  0999 V2000
    4.2981    2.1876    0.5163 F   0  0  0  0  0  0  0  0  0  0  0  0
    2.7614   -2.1976   -0.4495 F   0  0  0  0  0  0  0  0  0  0  0  0
   -8.2462   -1.9947   -1.2210 O   0  0  0  0  0  0  0  0  0  0  0  0
    1.9404   -0.9865    2.1979 O   0  0  0  0  0  0  0  0  0  0  0  0
    5.3223   -2.9787   -1.0414 O   0  0  0  0  0  0  0  0  0  0  0  0
    6.8677    1.4302   -0.0702 O   0  0  0  0  0  0  0  0  0  0  0  0
   -6.2681   -0.3988    0.0602 N   0  0  0  0  0  0  0  0  0  0  0  0
    0.0326    0.0848    1.4467 N   0  0  0  0  0  0  0  0  0  0  0  0
    2.1468    0.4110    0.3495 N   0  0  0  0  0  0  0  0  0  0  0  0
   -3.8775    1.9066   -0.6379 N   0  0  0  0  0  0  0  0  0  0  0  0
   -1.7803    2.6321   -1.5156 N   0  0  0  0  0  0  0  0  0  0  0  0
   -0.6339    0.9051    0.4830 C   0  0  0  0  0  0  0  0  0  0  0  0
   -2.0438    1.0453    0.3464 C   0  0  0  0  0  0  0  0  0  0  0  0
   -5.7664    0.8701    0.5838 C   0  0  0  0  0  0  0  0  0  0  0  0
    0.1545    1.6435   -0.4069 C   0  0  0  0  0  0  0  0  0  0  0  0
   -4.3257    1.0652    0.3380 C   0  0  0  0  0  0  0  0  0  0  0  0
    1.6410    1.6251   -0.2861 C   0  0  0  0  0  0  0  0  0  0  0  0
   -2.5087    1.9043   -0.6535 C   0  0  0  0  0  0  0  0  0  0  0  0
   -3.2239    0.5184    0.9576 C   0  0  0  0  0  0  0  0  0  0  0  0
   -7.5007   -0.7984    0.7534 C   0  0  0  0  0  0  0  0  0  0  0  0
   -6.5111   -0.3069   -1.3862 C   0  0  0  0  0  0  0  0  0  0  0  0
    1.4166   -0.2161    1.3839 C   0  0  0  0  0  0  0  0  0  0  0  0
   -8.0110   -2.1181    0.1821 C   0  0  0  0  0  0  0  0  0  0  0  0
   -7.0458   -1.6377   -1.9074 C   0  0  0  0  0  0  0  0  0  0  0  0
   -0.7462   -0.5302    2.5156 C   0  0  0  0  0  0  0  0  0  0  0  0
   -0.4555    2.4717   -1.3468 C   0  0  0  0  0  0  0  0  0  0  0  0
    3.4995    0.0043    0.0398 C   0  0  0  0  0  0  0  0  0  0  0  0
   -1.3195   -1.8650    2.0866 C   0  0  0  0  0  0  0  0  0  0  0  0
    4.5432    0.9248    0.1362 C   0  0  0  0  0  0  0  0  0  0  0  0
    3.7608   -1.3076   -0.3556 C   0  0  0  0  0  0  0  0  0  0  0  0
    5.0658   -1.6992   -0.6548 C   0  0  0  0  0  0  0  0  0  0  0  0
    5.8482    0.5332   -0.1629 C   0  0  0  0  0  0  0  0  0  0  0  0
    6.1094   -0.7787   -0.5587 C   0  0  0  0  0  0  0  0  0  0  0  0
    6.6797   -3.3093   -1.3316 C   0  0  0  0  0  0  0  0  0  0  0  0
    8.1765    0.9607   -0.3910 C   0  0  0  0  0  0  0  0  0  0  0  0
   -5.8940    0.8898    1.6758 H   0  0  0  0  0  0  0  0  0  0  0  0
   -6.3549    1.7193    0.2106 H   0  0  0  0  0  0  0  0  0  0  0  0
    2.0948    1.7121   -1.2809 H   0  0  0  0  0  0  0  0  0  0  0  0
    1.9460    2.4803    0.3281 H   0  0  0  0  0  0  0  0  0  0  0  0
   -3.3115   -0.1797    1.7752 H   0  0  0  0  0  0  0  0  0  0  0  0
   -8.2708   -0.0251    0.6343 H   0  0  0  0  0  0  0  0  0  0  0  0
   -7.3123   -0.9299    1.8251 H   0  0  0  0  0  0  0  0  0  0  0  0
   -5.5872   -0.0732   -1.9260 H   0  0  0  0  0  0  0  0  0  0  0  0
   -7.2408    0.4846   -1.6019 H   0  0  0  0  0  0  0  0  0  0  0  0
   -4.4612    2.4473   -1.2612 H   0  0  0  0  0  0  0  0  0  0  0  0
   -7.3055   -2.9380    0.3644 H   0  0  0  0  0  0  0  0  0  0  0  0
   -8.9605   -2.3870    0.6560 H   0  0  0  0  0  0  0  0  0  0  0  0
   -7.2847   -1.5522   -2.9723 H   0  0  0  0  0  0  0  0  0  0  0  0
   -6.3077   -2.4416   -1.7967 H   0  0  0  0  0  0  0  0  0  0  0  0
   -0.0930   -0.7040    3.3799 H   0  0  0  0  0  0  0  0  0  0  0  0
   -1.5010    0.1683    2.8860 H   0  0  0  0  0  0  0  0  0  0  0  0
    0.1505    3.0686   -2.0245 H   0  0  0  0  0  0  0  0  0  0  0  0
   -0.5162   -2.6011    1.9664 H   0  0  0  0  0  0  0  0  0  0  0  0
   -2.0043   -2.2481    2.8495 H   0  0  0  0  0  0  0  0  0  0  0  0
   -1.8472   -1.8274    1.1304 H   0  0  0  0  0  0  0  0  0  0  0  0
    7.1194   -1.0817   -0.7906 H   0  0  0  0  0  0  0  0  0  0  0  0
    6.6974   -4.3652   -1.6216 H   0  0  0  0  0  0  0  0  0  0  0  0
    7.3175   -3.2147   -0.4460 H   0  0  0  0  0  0  0  0  0  0  0  0
    7.0606   -2.7410   -2.1871 H   0  0  0  0  0  0  0  0  0  0  0  0
    8.8607    1.8060   -0.2622 H   0  0  0  0  0  0  0  0  0  0  0  0
    8.2500    0.6524   -1.4396 H   0  0  0  0  0  0  0  0  0  0  0  0
    8.5071    0.1790    0.3016 H   0  0  0  0  0  0  0  0  0  0  0  0
  1 29  1  0  0  0  0
  2 30  1  0  0  0  0
  3 23  1  0  0  0  0
  3 24  1  0  0  0  0
  4 22  2  0  0  0  0
  5 31  1  0  0  0  0
  5 34  1  0  0  0  0
  6 32  1  0  0  0  0
  6 35  1  0  0  0  0
  7 14  1  0  0  0  0
  7 20  1  0  0  0  0
  7 21  1  0  0  0  0
  8 12  1  0  0  0  0
  8 22  1  0  0  0  0
  8 25  1  0  0  0  0
  9 17  1  0  0  0  0
  9 22  1  0  0  0  0
  9 27  1  0  0  0  0
 10 16  1  0  0  0  0
 10 18  1  0  0  0  0
 10 45  1  0  0  0  0
 11 18  2  0  0  0  0
 11 26  1  0  0  0  0
 12 13  2  0  0  0  0
 12 15  1  0  0  0  0
 13 18  1  0  0  0  0
 13 19  1  0  0  0  0
 14 16  1  0  0  0  0
 14 36  1  0  0  0  0
 14 37  1  0  0  0  0
 15 17  1  0  0  0  0
 15 26  2  0  0  0  0
 16 19  2  0  0  0  0
 17 38  1  0  0  0  0
 17 39  1  0  0  0  0
 19 40  1  0  0  0  0
 20 23  1  0  0  0  0
 20 41  1  0  0  0  0
 20 42  1  0  0  0  0
 21 24  1  0  0  0  0
 21 43  1  0  0  0  0
 21 44  1  0  0  0  0
 23 46  1  0  0  0  0
 23 47  1  0  0  0  0
 24 48  1  0  0  0  0
 24 49  1  0  0  0  0
 25 28  1  0  0  0  0
 25 50  1  0  0  0  0
 25 51  1  0  0  0  0
 26 52  1  0  0  0  0
 27 29  2  0  0  0  0
 27 30  1  0  0  0  0
 28 53  1  0  0  0  0
 28 54  1  0  0  0  0
 28 55  1  0  0  0  0
 29 32  1  0  0  0  0
 30 31  2  0  0  0  0
 31 33  1  0  0  0  0
 32 33  2  0  0  0  0
 33 56  1  0  0  0  0
 34 57  1  0  0  0  0
 34 58  1  0  0  0  0
 34 59  1  0  0  0  0
 35 60  1  0  0  0  0
 35 61  1  0  0  0  0
 35 62  1  0  0  0  0
M  END
> <PUBCHEM_COMPOUND_CID>
86705695

> <PUBCHEM_CONFORMER_RMSD>
1

> <PUBCHEM_CONFORMER_DIVERSEORDER>
3
33
36
32
10
30
26
1
12
31
41
28
7
11
6
16
38
5
19
34
37
40
29
18
17
39
20
4
24
8
2
9
35
14
15
21
22
13
27
25
23

> <PUBCHEM_MMFF94_PARTIAL_CHARGES>
37
1 -0.19
10 0.03
11 -0.57
12 0.12
14 0.45
15 -0.14
16 -0.33
17 0.44
18 0.11
19 -0.15
2 -0.19
20 0.27
21 0.27
22 0.69
23 0.28
24 0.28
25 0.3
26 0.16
27 0.12
29 0.19
3 -0.56
30 0.19
31 0.08
32 0.08
33 -0.15
34 0.28
35 0.28
4 -0.57
40 0.15
45 0.27
5 -0.36
52 0.15
56 0.15
6 -0.36
7 -0.81
8 -0.48
9 -0.48

> <PUBCHEM_EFFECTIVE_ROTOR_COUNT>
7.8

> <PUBCHEM_PHARMACOPHORE_FEATURES>
12
1 10 donor
1 3 acceptor
1 4 acceptor
1 5 acceptor
1 6 acceptor
1 7 cation
3 10 11 18 cation
5 10 13 16 18 19 rings
6 11 12 13 15 18 26 rings
6 27 29 30 31 32 33 rings
6 3 7 20 21 23 24 rings
6 8 9 12 15 17 22 rings

> <PUBCHEM_HEAVY_ATOM_COUNT>
35

> <PUBCHEM_ATOM_DEF_STEREO_COUNT>
0

> <PUBCHEM_ATOM_UDEF_STEREO_COUNT>
0

> <PUBCHEM_BOND_DEF_STEREO_COUNT>
0

> <PUBCHEM_BOND_UDEF_STEREO_COUNT>
0

> <PUBCHEM_ISOTOPIC_ATOM_COUNT>
0

> <PUBCHEM_COMPONENT_COUNT>
1

> <PUBCHEM_CACTVS_TAUTO_COUNT>
2

> <PUBCHEM_CONFORMER_ID>
052B061F00000003

> <PUBCHEM_MMFF94_ENERGY>
119.4329

> <PUBCHEM_FEATURE_SELFOVERLAP>
61.032

> <PUBCHEM_SHAPE_FINGERPRINT>
10299344 5 17846782923005350647
11135926 11 17022904524044503833
11456790 92 9799698086600036286
11497681 19 18341895186071973357
11607047 74 17838326742897669985
11991303 11 15575010502140069635
12236239 1 16630249105008252912
12838862 33 17313373582905828864
1361 2 18410576184333332526
1361 4 18273214188011892622
13782708 43 18130501959940816655
13811026 1 18334298665111118714
14347424 109 8142083140153119894
14767858 380 17458345230446557691
14931854 50 17458062638725745523
15082195 135 18187941628840118460
15183329 4 18411415129328501587
15352257 5 17917992780804638207
16994733 274 12468644962426725071
17492 54 16950280694265925417
18335252 98 18341896303111506190
2026 5 18196657298384301014
21130935 74 18201159845595892986
21344244 181 18408042918138614107
21774942 28 12613019566543298087
21792938 703 18263930007239392011
23516275 137 17559702580320050655
23522609 53 17915490287459875376
23559900 14 18113906008651503872
23569943 247 18050292462114801858
23576562 1 15792872181258556127
24771293 8 18113059341769705204
2838139 119 12685093687931807559
3103668 31 16807312425799495195
3178227 256 14261356889962834905
3383291 50 17749682865181707803
397638 26 12319739181193776271
4149490 64 18131064910575155122
4173938 188 17917984006677127906
439807 62 17988922267216986351
44880568 143 17894630309944719493
5104073 3 13757484796066626319
57527295 17 17827368687791876586
59755656 215 17676483956288048857
6004065 56 18335421317643143596
6058803 2 16954765447440144873

> <PUBCHEM_SHAPE_MULTIPOLES>
657.35
23.06
2.93
1.69
12.09
1
0.54
13.19
-8.78
-1.58
-1.31
1.32
0.7
0.88

> <PUBCHEM_SHAPE_SELFOVERLAP>
1437.026

> <PUBCHEM_SHAPE_VOLUME>
358.6

> <PUBCHEM_COORDINATE_TYPE>
2
5
10

$$$$
118607832
  -OEChem-11282412143D

 82 85  0     1  0  0  0  0  0999 V2000
    2.9268   -3.5939   -1.0117 O   0  0  0  0  0  0  0  0  0  0  0  0
   -5.3767   -1.3264   -0.2100 O   0  0  0  0  0  0  0  0  0  0  0  0
   -5.4334   -2.0694    1.9680 O   0  0  0  0  0  0  0  0  0  0  0  0
    0.5510    1.8541    1.6044 O   0  0  0  0  0  0  0  0  0  0  0  0
    4.9376    0.7584   -0.8319 N   0  0  3  0  0  0  0  0  0  0  0  0
   -3.8746    2.3080    0.7867 N   0  0  0  0  0  0  0  0  0  0  0  0
    8.2089    0.0084    0.7574 N   0  0  0  0  0  0  0  0  0  0  0  0
    0.6512   -2.6622    0.3502 N   0  0  0  0  0  0  0  0  0  0  0  0
   -1.1601   -1.1706    0.3224 N   0  0  0  0  0  0  0  0  0  0  0  0
    2.6485    1.7263    0.5459 N   0  0  0  0  0  0  0  0  0  0  0  0
   -1.4915   -3.5113    0.7905 N   0  0  0  0  0  0  0  0  0  0  0  0
    6.0301    0.9134    0.1059 C   0  0  0  0  0  0  0  0  0  0  0  0
   -2.9375    0.3595    0.2849 C   0  0  0  0  0  0  0  0  0  0  0  0
   -2.8334    1.2090   -0.8519 C   0  0  0  0  0  0  0  0  0  0  0  0
   -3.4289    2.4252   -0.5106 C   0  0  0  0  0  0  0  0  0  0  0  0
    3.8515   -0.0927   -0.5281 C   0  0  0  0  0  0  0  0  0  0  0  0
    7.0879   -0.1498   -0.1606 C   0  0  0  0  0  0  0  0  0  0  0  0
   -3.5822    1.0632    1.2760 C   0  0  0  0  0  0  0  0  0  0  0  0
   -2.4893   -0.9912    0.4694 C   0  0  0  0  0  0  0  0  0  0  0  0
    2.7304    0.3887    0.1481 C   0  0  0  0  0  0  0  0  0  0  0  0
    1.7286   -1.8077    0.0510 C   0  0  0  0  0  0  0  0  0  0  0  0
    3.9110   -1.4317   -0.9148 C   0  0  0  0  0  0  0  0  0  0  0  0
    2.8497   -2.2892   -0.6253 C   0  0  0  0  0  0  0  0  0  0  0  0
   -2.2879    1.0596   -2.1425 C   0  0  0  0  0  0  0  0  0  0  0  0
    1.6689   -0.4688    0.4374 C   0  0  0  0  0  0  0  0  0  0  0  0
   -3.5066    3.5037   -1.3989 C   0  0  0  0  0  0  0  0  0  0  0  0
    4.9658    1.4906   -2.0809 C   0  0  0  0  0  0  0  0  0  0  0  0
   -3.3715   -2.0080    0.7724 C   0  0  0  0  0  0  0  0  0  0  0  0
   -4.5548    3.3405    1.5385 C   0  0  0  0  0  0  0  0  0  0  0  0
   -0.7354   -2.4370    0.4941 C   0  0  0  0  0  0  0  0  0  0  0  0
   -2.3584    2.1299   -3.0416 C   0  0  0  0  0  0  0  0  0  0  0  0
   -2.9589    3.3322   -2.6734 C   0  0  0  0  0  0  0  0  0  0  0  0
    8.9697   -1.2382    0.8628 C   0  0  0  0  0  0  0  0  0  0  0  0
    9.0822    1.1000    0.3220 C   0  0  0  0  0  0  0  0  0  0  0  0
   -2.8105   -3.2598    0.9232 C   0  0  0  0  0  0  0  0  0  0  0  0
   -4.8048   -1.8185    0.9314 C   0  0  0  0  0  0  0  0  0  0  0  0
    1.6015    2.3592    1.2266 C   0  0  0  0  0  0  0  0  0  0  0  0
   -6.7893   -1.0962   -0.1780 C   0  0  0  0  0  0  0  0  0  0  0  0
    4.1104   -3.9970   -1.6975 C   0  0  0  0  0  0  0  0  0  0  0  0
   -7.5134   -2.3661   -0.5985 C   0  0  0  0  0  0  0  0  0  0  0  0
   -7.1263    0.0758   -1.0871 C   0  0  0  0  0  0  0  0  0  0  0  0
    1.8972    3.8013    1.4680 C   0  0  0  0  0  0  0  0  0  0  0  0
    1.0165    4.5785    2.1061 C   0  0  0  0  0  0  0  0  0  0  0  0
    6.4394    1.9251    0.0120 H   0  0  0  0  0  0  0  0  0  0  0  0
    5.6634    0.8326    1.1380 H   0  0  0  0  0  0  0  0  0  0  0  0
    6.6247   -1.1307    0.0040 H   0  0  0  0  0  0  0  0  0  0  0  0
    7.4134   -0.1386   -1.2094 H   0  0  0  0  0  0  0  0  0  0  0  0
   -3.8529    0.7873    2.2874 H   0  0  0  0  0  0  0  0  0  0  0  0
    4.8016   -1.7460   -1.4485 H   0  0  0  0  0  0  0  0  0  0  0  0
   -1.8166    0.1290   -2.4458 H   0  0  0  0  0  0  0  0  0  0  0  0
    0.8218   -0.1532    1.0204 H   0  0  0  0  0  0  0  0  0  0  0  0
    5.9200    2.0081   -2.2274 H   0  0  0  0  0  0  0  0  0  0  0  0
    4.1701    2.2424   -2.1055 H   0  0  0  0  0  0  0  0  0  0  0  0
    4.8279    0.8127   -2.9302 H   0  0  0  0  0  0  0  0  0  0  0  0
   -3.9727    4.4423   -1.1185 H   0  0  0  0  0  0  0  0  0  0  0  0
   -4.7917    2.9710    2.5394 H   0  0  0  0  0  0  0  0  0  0  0  0
   -3.8928    4.2071    1.6110 H   0  0  0  0  0  0  0  0  0  0  0  0
   -5.4771    3.5990    1.0119 H   0  0  0  0  0  0  0  0  0  0  0  0
    0.8882   -3.6497    0.3524 H   0  0  0  0  0  0  0  0  0  0  0  0
   -1.9393    2.0203   -4.0383 H   0  0  0  0  0  0  0  0  0  0  0  0
   -3.0026    4.1505   -3.3876 H   0  0  0  0  0  0  0  0  0  0  0  0
    3.4590    2.2922    0.3036 H   0  0  0  0  0  0  0  0  0  0  0  0
    8.3384   -2.0452    1.2512 H   0  0  0  0  0  0  0  0  0  0  0  0
    9.7987   -1.1250    1.5704 H   0  0  0  0  0  0  0  0  0  0  0  0
    9.3805   -1.5536   -0.1032 H   0  0  0  0  0  0  0  0  0  0  0  0
    8.5658    2.0644    0.3297 H   0  0  0  0  0  0  0  0  0  0  0  0
    9.4877    0.9315   -0.6824 H   0  0  0  0  0  0  0  0  0  0  0  0
    9.9267    1.2081    1.0127 H   0  0  0  0  0  0  0  0  0  0  0  0
   -3.4162   -4.1289    1.1609 H   0  0  0  0  0  0  0  0  0  0  0  0
   -7.1070   -0.8187    0.8349 H   0  0  0  0  0  0  0  0  0  0  0  0
    4.2185   -3.4787   -2.6565 H   0  0  0  0  0  0  0  0  0  0  0  0
    4.9990   -3.8977   -1.0646 H   0  0  0  0  0  0  0  0  0  0  0  0
    4.0024   -5.0627   -1.9251 H   0  0  0  0  0  0  0  0  0  0  0  0
   -7.2001   -2.6799   -1.6004 H   0  0  0  0  0  0  0  0  0  0  0  0
   -8.5983   -2.2230   -0.6000 H   0  0  0  0  0  0  0  0  0  0  0  0
   -7.2748   -3.1932    0.0783 H   0  0  0  0  0  0  0  0  0  0  0  0
   -6.8050   -0.1225   -2.1156 H   0  0  0  0  0  0  0  0  0  0  0  0
   -8.2001    0.2856   -1.0882 H   0  0  0  0  0  0  0  0  0  0  0  0
   -6.5944    0.9759   -0.7608 H   0  0  0  0  0  0  0  0  0  0  0  0
    2.8374    4.2147    1.1197 H   0  0  0  0  0  0  0  0  0  0  0  0
    0.0651    4.2072    2.4704 H   0  0  0  0  0  0  0  0  0  0  0  0
    1.2418    5.6261    2.2765 H   0  0  0  0  0  0  0  0  0  0  0  0
  1 23  1  0  0  0  0
  1 39  1  0  0  0  0
  2 36  1  0  0  0  0
  2 38  1  0  0  0  0
  3 36  2  0  0  0  0
  4 37  2  0  0  0  0
  5 12  1  0  0  0  0
  5 16  1  0  0  0  0
  5 27  1  0  0  0  0
  6 15  1  0  0  0  0
  6 18  1  0  0  0  0
  6 29  1  0  0  0  0
  7 17  1  0  0  0  0
  7 33  1  0  0  0  0
  7 34  1  0  0  0  0
  8 21  1  0  0  0  0
  8 30  1  0  0  0  0
  8 59  1  0  0  0  0
  9 19  2  0  0  0  0
  9 30  1  0  0  0  0
 10 20  1  0  0  0  0
 10 37  1  0  0  0  0
 10 62  1  0  0  0  0
 11 30  2  0  0  0  0
 11 35  1  0  0  0  0
 12 17  1  0  0  0  0
 12 44  1  0  0  0  0
 12 45  1  0  0  0  0
 13 14  1  0  0  0  0
 13 18  2  0  0  0  0
 13 19  1  0  0  0  0
 14 15  1  0  0  0  0
 14 24  2  0  0  0  0
 15 26  2  0  0  0  0
 16 20  1  0  0  0  0
 16 22  2  0  0  0  0
 17 46  1  0  0  0  0
 17 47  1  0  0  0  0
 18 48  1  0  0  0  0
 19 28  1  0  0  0  0
 20 25  2  0  0  0  0
 21 23  2  0  0  0  0
 21 25  1  0  0  0  0
 22 23  1  0  0  0  0
 22 49  1  0  0  0  0
 24 31  1  0  0  0  0
 24 50  1  0  0  0  0
 25 51  1  0  0  0  0
 26 32  1  0  0  0  0
 26 55  1  0  0  0  0
 27 52  1  0  0  0  0
 27 53  1  0  0  0  0
 27 54  1  0  0  0  0
 28 35  2  0  0  0  0
 28 36  1  0  0  0  0
 29 56  1  0  0  0  0
 29 57  1  0  0  0  0
 29 58  1  0  0  0  0
 31 32  2  0  0  0  0
 31 60  1  0  0  0  0
 32 61  1  0  0  0  0
 33 63  1  0  0  0  0
 33 64  1  0  0  0  0
 33 65  1  0  0  0  0
 34 66  1  0  0  0  0
 34 67  1  0  0  0  0
 34 68  1  0  0  0  0
 35 69  1  0  0  0  0
 37 42  1  0  0  0  0
 38 40  1  0  0  0  0
 38 41  1  0  0  0  0
 38 70  1  0  0  0  0
 39 71  1  0  0  0  0
 39 72  1  0  0  0  0
 39 73  1  0  0  0  0
 40 74  1  0  0  0  0
 40 75  1  0  0  0  0
 40 76  1  0  0  0  0
 41 77  1  0  0  0  0
 41 78  1  0  0  0  0
 41 79  1  0  0  0  0
 42 43  2  0  0  0  0
 42 80  1  0  0  0  0
 43 81  1  0  0  0  0
 43 82  1  0  0  0  0
M  END
> <PUBCHEM_COMPOUND_CID>
118607832

> <PUBCHEM_CONFORMER_RMSD>
1.4

> <PUBCHEM_CONFORMER_DIVERSEORDER>
3
5
38
32
27
15
8
26
36
17
25
14
29
16
24
21
30
20
19
10
40
31
37
11
23
12
18
33
35
9
4
2
39
22
7
28
34
13
6
1

> <PUBCHEM_MMFF94_PARTIAL_CHARGES>
53
1 -0.36
10 -0.55
11 -0.62
12 0.37
13 -0.05
15 -0.15
16 0.1
17 0.27
18 -0.3
19 0.36
2 -0.43
20 0.12
21 0.1
22 -0.15
23 0.08
24 -0.15
25 -0.15
26 -0.15
27 0.37
28 0.09
29 0.26
3 -0.57
30 0.72
31 -0.15
32 -0.15
33 0.27
34 0.27
35 0.16
36 0.63
37 0.62
38 0.28
39 0.28
4 -0.57
42 -0.14
43 -0.3
48 0.15
49 0.15
5 -0.84
50 0.15
51 0.15
55 0.15
59 0.4
6 0.05
60 0.15
61 0.15
62 0.37
69 0.15
7 -0.81
8 -0.6
80 0.15
81 0.15
82 0.15
9 -0.62

> <PUBCHEM_EFFECTIVE_ROTOR_COUNT>
14

> <PUBCHEM_PHARMACOPHORE_FEATURES>
16
1 1 acceptor
1 10 donor
1 3 acceptor
1 4 acceptor
1 43 hydrophobe
1 5 cation
1 6 cation
1 7 cation
1 8 donor
1 9 acceptor
3 38 40 41 hydrophobe
4 8 9 11 30 cation
5 6 13 14 15 18 rings
6 14 15 24 26 31 32 rings
6 16 20 21 22 23 25 rings
6 9 11 19 28 30 35 rings

> <PUBCHEM_HEAVY_ATOM_COUNT>
43

> <PUBCHEM_ATOM_DEF_STEREO_COUNT>
0

> <PUBCHEM_ATOM_UDEF_STEREO_COUNT>
0

> <PUBCHEM_BOND_DEF_STEREO_COUNT>
0

> <PUBCHEM_BOND_UDEF_STEREO_COUNT>
0

> <PUBCHEM_ISOTOPIC_ATOM_COUNT>
0

> <PUBCHEM_COMPONENT_COUNT>
1

> <PUBCHEM_CACTVS_TAUTO_COUNT>
25

> <PUBCHEM_CONFORMER_ID>
0711CFD800000003

> <PUBCHEM_MMFF94_ENERGY>
158.7086

> <PUBCHEM_FEATURE_SELFOVERLAP>
81.289

> <PUBCHEM_SHAPE_FINGERPRINT>
10165383 225 18262802861412231553
11135926 11 18271804554724133756
12107698 1 17846781832036587537
13811026 1 18412825768661246338
14068700 675 18339360894228961573
14118638 360 18412827958530435150
14415360 78 18337383830251579057
15021287 119 16805042935157246468
15351339 4 18337107870038607938
15975801 100 17604136030755992141
18608769 82 18409163342246360735
19311894 1 17911247122264578571
23559900 14 18196090165094900929
354706 35 18118660172143360789
508706 21 18115311068679085943

> <PUBCHEM_SHAPE_MULTIPOLES>
826.58
20.1
5.39
2.04
27.42
1.2
-1
-4.51
-0.08
-2.66
0.65
-1.25
1.86
2.93

> <PUBCHEM_SHAPE_SELFOVERLAP>
1765.988

> <PUBCHEM_SHAPE_VOLUME>
460.3

> <PUBCHEM_COORDINATE_TYPE>
2
5
10

$$$$
44480399
  -OEChem-11282412143D

 48 51  0     0  0  0  0  0  0999 V2000
   -1.9747   -0.4435    3.6003 O   0  0  0  0  0  0  0  0  0  0  0  0
    0.1584   -0.8469   -0.7279 O   0  0  0  0  0  0  0  0  0  0  0  0
    0.1108   -2.2421   -5.6201 O   0  0  0  0  0  0  0  0  0  0  0  0
   -0.0400    0.1502   -7.0268 O   0  0  0  0  0  0  0  0  0  0  0  0
    1.9531   -0.4771    5.9240 O   0  0  0  0  0  0  0  0  0  0  0  0
    0.2877    0.7162    7.0100 N   0  0  0  0  0  0  0  0  0  0  0  0
    0.0412    1.4478   -0.8181 N   0  0  0  0  0  0  0  0  0  0  0  0
   -0.0662    2.5900   -2.9372 N   0  0  0  0  0  0  0  0  0  0  0  0
    0.2747   -0.3452    3.4176 C   0  0  0  0  0  0  0  0  0  0  0  0
   -0.9262   -0.4914    2.7310 C   0  0  0  0  0  0  0  0  0  0  0  0
   -0.0778   -0.1996    4.7852 C   0  0  0  0  0  0  0  0  0  0  0  0
   -1.4506   -0.2662    4.8411 C   0  0  0  0  0  0  0  0  0  0  0  0
    1.4743   -0.3697    2.6849 C   0  0  0  0  0  0  0  0  0  0  0  0
   -1.0220   -0.6617    1.3511 C   0  0  0  0  0  0  0  0  0  0  0  0
    0.1830   -0.6826    0.6424 C   0  0  0  0  0  0  0  0  0  0  0  0
    1.4101   -0.5398    1.2952 C   0  0  0  0  0  0  0  0  0  0  0  0
    0.0547    0.1954   -2.8855 C   0  0  0  0  0  0  0  0  0  0  0  0
    0.7862   -0.0177    5.9154 C   0  0  0  0  0  0  0  0  0  0  0  0
   -2.4223   -0.1866    5.9425 C   0  0  0  0  0  0  0  0  0  0  0  0
    0.0831    0.2856   -1.4966 C   0  0  0  0  0  0  0  0  0  0  0  0
   -0.0227    1.4117   -3.5834 C   0  0  0  0  0  0  0  0  0  0  0  0
    0.0995   -1.0306   -3.5716 C   0  0  0  0  0  0  0  0  0  0  0  0
    0.0676   -1.0511   -4.9624 C   0  0  0  0  0  0  0  0  0  0  0  0
   -0.0532    1.3618   -4.9749 C   0  0  0  0  0  0  0  0  0  0  0  0
   -0.0088    0.1466   -5.6646 C   0  0  0  0  0  0  0  0  0  0  0  0
   -0.0319    2.5440   -1.5899 C   0  0  0  0  0  0  0  0  0  0  0  0
    1.0419    1.0036    8.2090 C   0  0  0  0  0  0  0  0  0  0  0  0
    0.1887   -3.4219   -4.8214 C   0  0  0  0  0  0  0  0  0  0  0  0
   -0.1188    1.4210   -7.6693 C   0  0  0  0  0  0  0  0  0  0  0  0
   -1.9807   -0.7725    0.8575 H   0  0  0  0  0  0  0  0  0  0  0  0
    2.4376   -0.2586    3.1733 H   0  0  0  0  0  0  0  0  0  0  0  0
    2.3351   -0.5603    0.7233 H   0  0  0  0  0  0  0  0  0  0  0  0
   -3.3708   -0.6547    5.6572 H   0  0  0  0  0  0  0  0  0  0  0  0
   -2.0643   -0.7094    6.8345 H   0  0  0  0  0  0  0  0  0  0  0  0
   -2.6359    0.8552    6.1993 H   0  0  0  0  0  0  0  0  0  0  0  0
    0.1587   -1.9342   -2.9744 H   0  0  0  0  0  0  0  0  0  0  0  0
   -0.1129    2.3227   -5.4782 H   0  0  0  0  0  0  0  0  0  0  0  0
   -0.6153    1.1693    6.9346 H   0  0  0  0  0  0  0  0  0  0  0  0
   -0.0672    3.4965   -1.0752 H   0  0  0  0  0  0  0  0  0  0  0  0
    0.3451    1.0832    9.0464 H   0  0  0  0  0  0  0  0  0  0  0  0
    1.5607    1.9549    8.0680 H   0  0  0  0  0  0  0  0  0  0  0  0
    1.7712    0.2128    8.4000 H   0  0  0  0  0  0  0  0  0  0  0  0
    0.2147   -4.2742   -5.5084 H   0  0  0  0  0  0  0  0  0  0  0  0
   -0.7020   -3.5458   -4.1960 H   0  0  0  0  0  0  0  0  0  0  0  0
    1.1162   -3.4552   -4.2396 H   0  0  0  0  0  0  0  0  0  0  0  0
   -1.0514    1.9408   -7.4246 H   0  0  0  0  0  0  0  0  0  0  0  0
    0.7674    2.0322   -7.4669 H   0  0  0  0  0  0  0  0  0  0  0  0
   -0.1345    1.2350   -8.7484 H   0  0  0  0  0  0  0  0  0  0  0  0
  1 10  1  0  0  0  0
  1 12  1  0  0  0  0
  2 15  1  0  0  0  0
  2 20  1  0  0  0  0
  3 23  1  0  0  0  0
  3 28  1  0  0  0  0
  4 25  1  0  0  0  0
  4 29  1  0  0  0  0
  5 18  2  0  0  0  0
  6 18  1  0  0  0  0
  6 27  1  0  0  0  0
  6 38  1  0  0  0  0
  7 20  2  0  0  0  0
  7 26  1  0  0  0  0
  8 21  1  0  0  0  0
  8 26  2  0  0  0  0
  9 10  2  0  0  0  0
  9 11  1  0  0  0  0
  9 13  1  0  0  0  0
 10 14  1  0  0  0  0
 11 12  2  0  0  0  0
 11 18  1  0  0  0  0
 12 19  1  0  0  0  0
 13 16  2  0  0  0  0
 13 31  1  0  0  0  0
 14 15  2  0  0  0  0
 14 30  1  0  0  0  0
 15 16  1  0  0  0  0
 16 32  1  0  0  0  0
 17 20  1  0  0  0  0
 17 21  1  0  0  0  0
 17 22  2  0  0  0  0
 19 33  1  0  0  0  0
 19 34  1  0  0  0  0
 19 35  1  0  0  0  0
 21 24  2  0  0  0  0
 22 23  1  0  0  0  0
 22 36  1  0  0  0  0
 23 25  2  0  0  0  0
 24 25  1  0  0  0  0
 24 37  1  0  0  0  0
 26 39  1  0  0  0  0
 27 40  1  0  0  0  0
 27 41  1  0  0  0  0
 27 42  1  0  0  0  0
 28 43  1  0  0  0  0
 28 44  1  0  0  0  0
 28 45  1  0  0  0  0
 29 46  1  0  0  0  0
 29 47  1  0  0  0  0
 29 48  1  0  0  0  0
M  END
> <PUBCHEM_COMPOUND_CID>
44480399

> <PUBCHEM_CONFORMER_RMSD>
0.8

> <PUBCHEM_CONFORMER_DIVERSEORDER>
9
61
36
35
59
74
58
72
12
65
29
51
54
40
63
67
42
26
71
5
48
52
73
34
31
70
45
28
17
49
23
1
75
33
22
38
64
66
14
16
41
37
39
43
50
44
62
57
56
19
2
53
68
15
47
20
18
10
13
46
60
69
7
30
21
24
8
3
55
4
32
11
25
27
6

> <PUBCHEM_MMFF94_PARTIAL_CHARGES>
34
1 -0.28
10 0.14
11 -0.09
12 -0.04
13 -0.15
14 -0.15
15 0.08
16 -0.15
18 0.72
19 0.18
2 -0.17
20 0.39
21 0.31
22 -0.15
23 0.08
24 -0.15
25 0.08
26 0.47
27 0.3
28 0.28
29 0.28
3 -0.36
30 0.15
31 0.15
32 0.15
36 0.15
37 0.15
38 0.37
39 0.15
4 -0.36
5 -0.57
6 -0.73
7 -0.62
8 -0.62

> <PUBCHEM_EFFECTIVE_ROTOR_COUNT>
6

> <PUBCHEM_PHARMACOPHORE_FEATURES>
10
1 1 acceptor
1 3 acceptor
1 4 acceptor
1 5 acceptor
1 6 donor
3 7 8 26 cation
5 1 9 10 11 12 rings
6 17 21 22 23 24 25 rings
6 7 8 17 20 21 26 rings
6 9 10 13 14 15 16 rings

> <PUBCHEM_HEAVY_ATOM_COUNT>
29

> <PUBCHEM_ATOM_DEF_STEREO_COUNT>
0

> <PUBCHEM_ATOM_UDEF_STEREO_COUNT>
0

> <PUBCHEM_BOND_DEF_STEREO_COUNT>
0

> <PUBCHEM_BOND_UDEF_STEREO_COUNT>
0

> <PUBCHEM_ISOTOPIC_ATOM_COUNT>
0

> <PUBCHEM_COMPONENT_COUNT>
1

> <PUBCHEM_CACTVS_TAUTO_COUNT>
2

> <PUBCHEM_CONFORMER_ID>
02A6B78F00000009

> <PUBCHEM_MMFF94_ENERGY>
98.0499

> <PUBCHEM_FEATURE_SELFOVERLAP>
50.885

> <PUBCHEM_SHAPE_FINGERPRINT>
10290309 65 15389121460994165638
11315181 36 15594321121272776934
11991303 11 14745118006539995858
12166972 35 15084294970749726368
12236239 1 15159445490621833943
12403259 415 14747366451166487153
12596602 18 15232907182662669129
12616971 3 15156917696315372606
12730499 353 14821118397102609330
12838862 33 14881613324762109924
13383665 225 16544033180553197432
13533116 47 14726254368004082787
13540713 4 13161826862473405858
13782708 43 15323551192135231410
14849402 71 15444304811837469576
14955137 171 15104839671826909293
15419008 47 15249517775744465849
1577012 14 15232062774775444107
17349148 13 15085984894040357359
18608769 82 15604171805023640650
18681886 176 15597977096171827912
200 152 14289417246873439108
20511986 3 14510640145965410364
21033648 29 14315859801726618793
21267235 1 15887055195841460063
21792961 116 15469362947932040626
221357 26 13961508180735943521
2303208 19 15322143851205020122
23081809 10 15014764071395967387
23557571 272 15824290699935875092
23559900 14 15530140548821940829
24771293 8 15226723555470579416
335352 9 15528167969322244220
3383291 50 15744063730230426071
34797466 226 15821756342940419544
397830 11 14668830577757649363
4015057 19 13850340447012686740
4073 2 16030891043624466983
4325135 7 15815277917286959192
46194498 28 15606992086624476016
49967989 163 16023580395143586675
5104073 3 15885930430275507781
5486654 2 15671442013691163919
5758199 1 15228693832498125131
59755656 215 15323268617414621834
67856867 119 15736469313486325676

> <PUBCHEM_SHAPE_MULTIPOLES>
552.52
21.2
2.11
1.39
7.19
0.42
-0.39
-1.93
1.01
-4.81
0.11
3.58
0.22
-0.76

> <PUBCHEM_SHAPE_SELFOVERLAP>
1226.526

> <PUBCHEM_SHAPE_VOLUME>
295.8

> <PUBCHEM_COORDINATE_TYPE>
2
5
10

$$$$
71554322
  -OEChem-11282412143D

 57 62  0     0  0  0  0  0  0999 V2000
   -4.8643    3.0190    0.4388 S   0  0  0  0  0  0  0  0  0  0  0  0
   -0.6127   -2.9361    1.5936 F   0  0  0  0  0  0  0  0  0  0  0  0
   -2.8959   -6.3959   -0.6830 F   0  0  0  0  0  0  0  0  0  0  0  0
   -5.8066    3.8437    1.1711 O   0  0  0  0  0  0  0  0  0  0  0  0
   -3.8958    3.6197   -0.4575 O   0  0  0  0  0  0  0  0  0  0  0  0
   -4.0773    1.9585    1.5558 N   0  0  0  0  0  0  0  0  0  0  0  0
    0.5244    1.5811    0.0405 N   0  0  0  0  0  0  0  0  0  0  0  0
    1.9936    3.1592   -0.4983 N   0  0  0  0  0  0  0  0  0  0  0  0
    7.9600    0.0960   -0.4901 N   0  0  0  0  0  0  0  0  0  0  0  0
    7.8912   -0.8467    0.4654 N   0  0  0  0  0  0  0  0  0  0  0  0
   -5.9184    1.9229   -0.6322 C   0  0  0  0  0  0  0  0  0  0  0  0
   -6.0116    2.4169   -2.0437 C   0  0  0  0  0  0  0  0  0  0  0  0
   -5.1308    1.2446   -1.7114 C   0  0  0  0  0  0  0  0  0  0  0  0
   -3.0016    1.1703    1.0457 C   0  0  0  0  0  0  0  0  0  0  0  0
   -1.7636    1.7610    0.7919 C   0  0  0  0  0  0  0  0  0  0  0  0
   -3.1885   -0.1902    0.8013 C   0  0  0  0  0  0  0  0  0  0  0  0
   -0.7126    0.9910    0.2935 C   0  0  0  0  0  0  0  0  0  0  0  0
   -2.1375   -0.9602    0.3029 C   0  0  0  0  0  0  0  0  0  0  0  0
   -0.8997   -0.3696    0.0488 C   0  0  0  0  0  0  0  0  0  0  0  0
    1.7531    0.9765    0.1109 C   0  0  0  0  0  0  0  0  0  0  0  0
   -2.3316   -2.3715    0.0496 C   0  0  0  0  0  0  0  0  0  0  0  0
    2.6536    1.9821   -0.2295 C   0  0  0  0  0  0  0  0  0  0  0  0
    0.7202    2.8832   -0.3270 C   0  0  0  0  0  0  0  0  0  0  0  0
    2.1423   -0.3239    0.4335 C   0  0  0  0  0  0  0  0  0  0  0  0
    4.0279    1.6910   -0.2547 C   0  0  0  0  0  0  0  0  0  0  0  0
    4.4418    0.3919    0.0657 C   0  0  0  0  0  0  0  0  0  0  0  0
    3.5140   -0.5961    0.4034 C   0  0  0  0  0  0  0  0  0  0  0  0
   -1.5511   -3.3176    0.7142 C   0  0  0  0  0  0  0  0  0  0  0  0
   -3.3028   -2.7850   -0.8623 C   0  0  0  0  0  0  0  0  0  0  0  0
    5.8427    0.0726    0.0458 C   0  0  0  0  0  0  0  0  0  0  0  0
   -1.7417   -4.6770    0.4667 C   0  0  0  0  0  0  0  0  0  0  0  0
   -3.4932   -4.1444   -1.1102 C   0  0  0  0  0  0  0  0  0  0  0  0
    6.7602    0.6771   -0.7785 C   0  0  0  0  0  0  0  0  0  0  0  0
    6.5954   -0.8564    0.7888 C   0  0  0  0  0  0  0  0  0  0  0  0
   -2.7126   -5.0905   -0.4456 C   0  0  0  0  0  0  0  0  0  0  0  0
    9.2297    0.4029   -1.1039 C   0  0  0  0  0  0  0  0  0  0  0  0
   -6.7551    1.4116   -0.1800 H   0  0  0  0  0  0  0  0  0  0  0  0
   -6.9296    2.2139   -2.5839 H   0  0  0  0  0  0  0  0  0  0  0  0
   -5.5398    3.3457   -2.3350 H   0  0  0  0  0  0  0  0  0  0  0  0
   -4.0617    1.3880   -1.7951 H   0  0  0  0  0  0  0  0  0  0  0  0
   -5.4622    0.2629   -2.0301 H   0  0  0  0  0  0  0  0  0  0  0  0
   -4.7225    1.4242    2.1537 H   0  0  0  0  0  0  0  0  0  0  0  0
   -1.6323    2.8166    1.0175 H   0  0  0  0  0  0  0  0  0  0  0  0
   -4.1566   -0.6430    1.0074 H   0  0  0  0  0  0  0  0  0  0  0  0
   -0.1482   -0.9735   -0.4486 H   0  0  0  0  0  0  0  0  0  0  0  0
   -0.0827    3.5931   -0.4775 H   0  0  0  0  0  0  0  0  0  0  0  0
    1.4690   -1.1016    0.7673 H   0  0  0  0  0  0  0  0  0  0  0  0
    4.7284    2.4807   -0.5079 H   0  0  0  0  0  0  0  0  0  0  0  0
    3.8375   -1.6030    0.6608 H   0  0  0  0  0  0  0  0  0  0  0  0
   -3.9182   -2.0643   -1.3958 H   0  0  0  0  0  0  0  0  0  0  0  0
   -1.1341   -5.4136    0.9839 H   0  0  0  0  0  0  0  0  0  0  0  0
   -4.2482   -4.4668   -1.8211 H   0  0  0  0  0  0  0  0  0  0  0  0
    6.6735    1.4460   -1.5350 H   0  0  0  0  0  0  0  0  0  0  0  0
    6.2622   -1.5414    1.5558 H   0  0  0  0  0  0  0  0  0  0  0  0
    9.9152    0.7436   -0.3240 H   0  0  0  0  0  0  0  0  0  0  0  0
    9.6092   -0.5043   -1.5807 H   0  0  0  0  0  0  0  0  0  0  0  0
    9.0942    1.1887   -1.8511 H   0  0  0  0  0  0  0  0  0  0  0  0
  1  4  2  0  0  0  0
  1  5  2  0  0  0  0
  1  6  1  0  0  0  0
  1 11  1  0  0  0  0
  2 28  1  0  0  0  0
  3 35  1  0  0  0  0
  6 14  1  0  0  0  0
  6 42  1  0  0  0  0
  7 17  1  0  0  0  0
  7 20  1  0  0  0  0
  7 23  1  0  0  0  0
  8 22  1  0  0  0  0
  8 23  2  0  0  0  0
  9 10  1  0  0  0  0
  9 33  1  0  0  0  0
  9 36  1  0  0  0  0
 10 34  2  0  0  0  0
 11 12  1  0  0  0  0
 11 13  1  0  0  0  0
 11 37  1  0  0  0  0
 12 13  1  0  0  0  0
 12 38  1  0  0  0  0
 12 39  1  0  0  0  0
 13 40  1  0  0  0  0
 13 41  1  0  0  0  0
 14 15  2  0  0  0  0
 14 16  1  0  0  0  0
 15 17  1  0  0  0  0
 15 43  1  0  0  0  0
 16 18  2  0  0  0  0
 16 44  1  0  0  0  0
 17 19  2  0  0  0  0
 18 19  1  0  0  0  0
 18 21  1  0  0  0  0
 19 45  1  0  0  0  0
 20 22  2  0  0  0  0
 20 24  1  0  0  0  0
 21 28  2  0  0  0  0
 21 29  1  0  0  0  0
 22 25  1  0  0  0  0
 23 46  1  0  0  0  0
 24 27  2  0  0  0  0
 24 47  1  0  0  0  0
 25 26  2  0  0  0  0
 25 48  1  0  0  0  0
 26 27  1  0  0  0  0
 26 30  1  0  0  0  0
 27 49  1  0  0  0  0
 28 31  1  0  0  0  0
 29 32  2  0  0  0  0
 29 50  1  0  0  0  0
 30 33  2  0  0  0  0
 30 34  1  0  0  0  0
 31 35  2  0  0  0  0
 31 51  1  0  0  0  0
 32 35  1  0  0  0  0
 32 52  1  0  0  0  0
 33 53  1  0  0  0  0
 34 54  1  0  0  0  0
 36 55  1  0  0  0  0
 36 56  1  0  0  0  0
 36 57  1  0  0  0  0
M  END
> <PUBCHEM_COMPOUND_CID>
71554322

> <PUBCHEM_CONFORMER_RMSD>
1.2

> <PUBCHEM_CONFORMER_DIVERSEORDER>
1
34
82
15
26
59
57
68
50
77
78
70
61
80
58
75
32
51
74
63
46
45
60
30
83
21
64
56
36
66
62
44
79
38
55
20
31
65
54
29
81
53
52
25
22
47
33
69
76
3
72
40
42
9
48
71
24
35
73
16
5
10
67
8
37
7
23
43
39
41
13
28
6
49
27
12
14
19
2
18
17
11
4

> <PUBCHEM_MMFF94_PARTIAL_CHARGES>
52
1 1.41
10 -0.71
11 -0.08
12 -0.2
13 -0.2
14 0.2
15 -0.15
16 -0.15
17 -0.02
19 -0.15
2 -0.19
20 -0.15
22 0.23
23 0.04
24 -0.15
25 -0.15
26 0.05
27 -0.15
28 0.19
29 -0.15
3 -0.19
30 -0.05
31 -0.15
32 -0.15
33 -0.3
34 0.14
35 0.19
36 0.26
37 0.1
38 0.1
39 0.1
4 -0.65
40 0.1
41 0.1
42 0.42
43 0.15
44 0.15
45 0.15
46 0.15
47 0.15
48 0.15
49 0.15
5 -0.65
50 0.15
51 0.15
52 0.15
53 0.15
54 0.15
6 -0.76
7 0.33
8 -0.57
9 0.31

> <PUBCHEM_EFFECTIVE_ROTOR_COUNT>
6.6

> <PUBCHEM_PHARMACOPHORE_FEATURES>
10
1 10 acceptor
1 4 acceptor
1 5 acceptor
1 6 donor
3 7 8 23 cation
5 7 8 20 22 23 rings
5 9 10 30 33 34 rings
6 14 15 16 17 18 19 rings
6 20 22 24 25 26 27 rings
6 21 28 29 31 32 35 rings

> <PUBCHEM_HEAVY_ATOM_COUNT>
36

> <PUBCHEM_ATOM_DEF_STEREO_COUNT>
0

> <PUBCHEM_ATOM_UDEF_STEREO_COUNT>
0

> <PUBCHEM_BOND_DEF_STEREO_COUNT>
0

> <PUBCHEM_BOND_UDEF_STEREO_COUNT>
0

> <PUBCHEM_ISOTOPIC_ATOM_COUNT>
0

> <PUBCHEM_COMPONENT_COUNT>
1

> <PUBCHEM_CACTVS_TAUTO_COUNT>
1

> <PUBCHEM_CONFORMER_ID>
0443D51200000001

> <PUBCHEM_MMFF94_ENERGY>
107.735

> <PUBCHEM_FEATURE_SELFOVERLAP>
50.873

> <PUBCHEM_SHAPE_FINGERPRINT>
10050765 1 18267867366678293680
10305334 12 18411138004927061574
10577160 183 18041828533261898626
10622 236 18194959871542256134
10940486 97 18334583477061342156
11227688 84 17327191343005821698
11763715 3 17613737224520072071
11991303 11 18333732438081508255
12788726 201 18119797261141726539
13690498 29 18050590704326571390
13782708 43 17703231836509612646
13911987 19 18264477404878779605
14340393 91 18267583692276835826
14415361 349 18341615885161306222
14866123 147 18340492265592193763
15183329 4 18261949657062511812
15439362 3 17977383833756250281
15461852 350 17274818048000017228
15890870 6 18338235956242422725
15927050 60 18339643339114608411
16067689 391 17985530377294246319
17492 89 18052258693905178986
19301676 85 18196376927224631350
20775438 99 17479132765228868237
21133410 171 17474333344949318938
21703447 108 17837763792184275608
23559900 14 18196646526236128776
23569943 247 14331747492083988740
23576562 1 18041560350914239660
249057 3 18335423461032303812
335352 9 18408324367466710180
3383291 50 18412826880772602049
4017518 198 18341332180479636854
4046055 25 17831009501219231359
44802255 64 18114460076738320159
4616759 239 17989200427079877426
5028188 123 18341061792116179804
504843 32 18334014965589346523
563151 97 18053946152386807273
59755656 520 18410568462266919341
6058803 2 18049461505817117461
6371380 46 18341889667535409424
6669772 16 18199474255716358759
6691757 9 18201166480961676193

> <PUBCHEM_SHAPE_MULTIPOLES>
693.52
18.96
6.55
1.24
43.09
10.48
0.2
-8.39
5.27
-14.39
0.76
-1.46
-0.27
-1.22

> <PUBCHEM_SHAPE_SELFOVERLAP>
1540.18

> <PUBCHEM_SHAPE_VOLUME>
377.2

> <PUBCHEM_COORDINATE_TYPE>
2
5
10

$$$$
11554659
  -OEChem-11282412143D

 57 60  0     0  0  0  0  0  0999 V2000
    2.7831    1.0147    2.3870 S   0  0  0  0  0  0  0  0  0  0  0  0
   -2.6739    0.6402   -1.6593 O   0  0  0  0  0  0  0  0  0  0  0  0
   -6.1779   -2.8026   -0.3669 O   0  0  0  0  0  0  0  0  0  0  0  0
   -7.8219   -1.5091    1.4627 O   0  0  0  0  0  0  0  0  0  0  0  0
    5.1833   -0.2740   -1.4104 O   0  0  0  0  0  0  0  0  0  0  0  0
   -5.2084    2.4452    1.0819 N   0  0  0  0  0  0  0  0  0  0  0  0
    2.6924    0.3122   -0.2982 N   0  0  0  0  0  0  0  0  0  0  0  0
    4.7851    0.3304    0.8185 N   0  0  0  0  0  0  0  0  0  0  0  0
   -4.6004    0.5040   -0.2102 C   0  0  0  0  0  0  0  0  0  0  0  0
   -5.4299    1.1680    0.7176 C   0  0  0  0  0  0  0  0  0  0  0  0
   -3.5214    1.2127   -0.7557 C   0  0  0  0  0  0  0  0  0  0  0  0
   -4.8610   -0.8297   -0.5677 C   0  0  0  0  0  0  0  0  0  0  0  0
   -5.9398   -1.5103   -0.0105 C   0  0  0  0  0  0  0  0  0  0  0  0
   -6.5016    0.4636    1.2592 C   0  0  0  0  0  0  0  0  0  0  0  0
   -6.7608   -0.8625    0.9041 C   0  0  0  0  0  0  0  0  0  0  0  0
   -3.2907    2.5289   -0.3824 C   0  0  0  0  0  0  0  0  0  0  0  0
   -1.3355    0.5596   -1.3196 C   0  0  0  0  0  0  0  0  0  0  0  0
   -4.1563    3.0939    0.5321 C   0  0  0  0  0  0  0  0  0  0  0  0
    1.3425    0.3943   -0.6412 C   0  0  0  0  0  0  0  0  0  0  0  0
   -0.9856    0.1323   -0.0505 C   0  0  0  0  0  0  0  0  0  0  0  0
   -0.3786    0.9063   -2.2573 C   0  0  0  0  0  0  0  0  0  0  0  0
    7.0327   -0.1937    0.0204 C   0  0  0  0  0  0  0  0  0  0  0  0
    7.5333   -1.4160    0.4216 C   0  0  0  0  0  0  0  0  0  0  0  0
    0.3643    0.0490    0.2913 C   0  0  0  0  0  0  0  0  0  0  0  0
    0.9712    0.8228   -1.9154 C   0  0  0  0  0  0  0  0  0  0  0  0
    5.5854   -0.0411   -0.2742 C   0  0  0  0  0  0  0  0  0  0  0  0
    7.8405    0.9181   -0.1210 C   0  0  0  0  0  0  0  0  0  0  0  0
    8.8968   -1.5323    0.6925 C   0  0  0  0  0  0  0  0  0  0  0  0
    6.6614   -2.6195    0.5763 C   0  0  0  0  0  0  0  0  0  0  0  0
    3.3912    0.5241    0.9016 C   0  0  0  0  0  0  0  0  0  0  0  0
    9.2038    0.8017    0.1501 C   0  0  0  0  0  0  0  0  0  0  0  0
    9.7319   -0.4234    0.5570 C   0  0  0  0  0  0  0  0  0  0  0  0
   -5.2855   -3.3901   -1.3121 C   0  0  0  0  0  0  0  0  0  0  0  0
   -9.0700   -1.4176    0.7786 C   0  0  0  0  0  0  0  0  0  0  0  0
   -4.1918   -1.2920   -1.2858 H   0  0  0  0  0  0  0  0  0  0  0  0
   -7.1553    0.9552    1.9783 H   0  0  0  0  0  0  0  0  0  0  0  0
   -2.4729    3.1115   -0.7921 H   0  0  0  0  0  0  0  0  0  0  0  0
   -4.0272    4.1203    0.8594 H   0  0  0  0  0  0  0  0  0  0  0  0
   -1.7266   -0.1737    0.6819 H   0  0  0  0  0  0  0  0  0  0  0  0
   -0.6662    1.2406   -3.2496 H   0  0  0  0  0  0  0  0  0  0  0  0
    0.6057   -0.3545    1.2681 H   0  0  0  0  0  0  0  0  0  0  0  0
    1.7229    1.0963   -2.6515 H   0  0  0  0  0  0  0  0  0  0  0  0
    3.3005    0.2928   -1.1134 H   0  0  0  0  0  0  0  0  0  0  0  0
    7.4361    1.8752   -0.4373 H   0  0  0  0  0  0  0  0  0  0  0  0
    9.3250   -2.4791    1.0110 H   0  0  0  0  0  0  0  0  0  0  0  0
    7.2376   -3.5056    0.8642 H   0  0  0  0  0  0  0  0  0  0  0  0
    6.1583   -2.8543   -0.3675 H   0  0  0  0  0  0  0  0  0  0  0  0
    5.9107   -2.4513    1.3553 H   0  0  0  0  0  0  0  0  0  0  0  0
    5.2780    0.4865    1.6951 H   0  0  0  0  0  0  0  0  0  0  0  0
    9.8541    1.6652    0.0446 H   0  0  0  0  0  0  0  0  0  0  0  0
   10.7934   -0.5138    0.7682 H   0  0  0  0  0  0  0  0  0  0  0  0
   -5.3305   -2.8810   -2.2809 H   0  0  0  0  0  0  0  0  0  0  0  0
   -4.2648   -3.4528   -0.9193 H   0  0  0  0  0  0  0  0  0  0  0  0
   -5.6245   -4.4180   -1.4785 H   0  0  0  0  0  0  0  0  0  0  0  0
   -9.8126   -1.9886    1.3425 H   0  0  0  0  0  0  0  0  0  0  0  0
   -9.3999   -0.3755    0.7207 H   0  0  0  0  0  0  0  0  0  0  0  0
   -8.9908   -1.8433   -0.2267 H   0  0  0  0  0  0  0  0  0  0  0  0
  1 30  2  0  0  0  0
  2 11  1  0  0  0  0
  2 17  1  0  0  0  0
  3 13  1  0  0  0  0
  3 33  1  0  0  0  0
  4 15  1  0  0  0  0
  4 34  1  0  0  0  0
  5 26  2  0  0  0  0
  6 10  2  0  0  0  0
  6 18  1  0  0  0  0
  7 19  1  0  0  0  0
  7 30  1  0  0  0  0
  7 43  1  0  0  0  0
  8 26  1  0  0  0  0
  8 30  1  0  0  0  0
  8 49  1  0  0  0  0
  9 10  1  0  0  0  0
  9 11  2  0  0  0  0
  9 12  1  0  0  0  0
 10 14  1  0  0  0  0
 11 16  1  0  0  0  0
 12 13  2  0  0  0  0
 12 35  1  0  0  0  0
 13 15  1  0  0  0  0
 14 15  2  0  0  0  0
 14 36  1  0  0  0  0
 16 18  2  0  0  0  0
 16 37  1  0  0  0  0
 17 20  2  0  0  0  0
 17 21  1  0  0  0  0
 18 38  1  0  0  0  0
 19 24  2  0  0  0  0
 19 25  1  0  0  0  0
 20 24  1  0  0  0  0
 20 39  1  0  0  0  0
 21 25  2  0  0  0  0
 21 40  1  0  0  0  0
 22 23  1  0  0  0  0
 22 26  1  0  0  0  0
 22 27  2  0  0  0  0
 23 28  2  0  0  0  0
 23 29  1  0  0  0  0
 24 41  1  0  0  0  0
 25 42  1  0  0  0  0
 27 31  1  0  0  0  0
 27 44  1  0  0  0  0
 28 32  1  0  0  0  0
 28 45  1  0  0  0  0
 29 46  1  0  0  0  0
 29 47  1  0  0  0  0
 29 48  1  0  0  0  0
 31 32  2  0  0  0  0
 31 50  1  0  0  0  0
 32 51  1  0  0  0  0
 33 52  1  0  0  0  0
 33 53  1  0  0  0  0
 33 54  1  0  0  0  0
 34 55  1  0  0  0  0
 34 56  1  0  0  0  0
 34 57  1  0  0  0  0
M  END
> <PUBCHEM_COMPOUND_CID>
11554659

> <PUBCHEM_CONFORMER_RMSD>
1

> <PUBCHEM_CONFORMER_DIVERSEORDER>
4
102
131
126
68
143
79
101
136
104
141
100
149
110
67
117
69
62
9
50
35
125
121
142
127
21
48
59
109
114
88
78
45
145
132
20
56
133
118
130
24
144
105
77
12
53
123
115
85
112
13
122
31
38
98
139
93
91
70
33
124
72
119
148
26
86
15
37
39
75
66
34
96
116
80
5
49
43
63
54
71
19
97
138
46
129
113
1
36
107
135
87
64
14
74
29
92
106
81
32
60
27
134
146
52
89
73
140
108
111
99
90
17
40
47
23
57
103
94
65
82
95
55
137
10
120
128
51
44
58
84
8
76
83
28
16
42
3
61
7
6
22
41
11
2
25
18
30
147

> <PUBCHEM_MMFF94_PARTIAL_CHARGES>
47
1 -0.38
10 0.31
11 0.08
12 -0.15
13 0.08
14 -0.15
15 0.08
16 -0.15
17 0.08
18 0.16
19 0.12
2 -0.17
20 -0.15
21 -0.15
22 0.09
23 -0.14
24 -0.15
25 -0.15
26 0.54
27 -0.15
28 -0.15
29 0.14
3 -0.36
30 0.5
31 -0.15
32 -0.15
33 0.28
34 0.28
35 0.15
36 0.15
37 0.15
38 0.15
39 0.15
4 -0.36
40 0.15
41 0.15
42 0.15
43 0.37
44 0.15
45 0.15
49 0.37
5 -0.57
50 0.15
51 0.15
6 -0.62
7 -0.55
8 -0.49

> <PUBCHEM_EFFECTIVE_ROTOR_COUNT>
9

> <PUBCHEM_PHARMACOPHORE_FEATURES>
12
1 1 acceptor
1 2 acceptor
1 3 acceptor
1 4 acceptor
1 5 acceptor
1 6 acceptor
1 7 donor
1 8 donor
6 17 19 20 21 24 25 rings
6 22 23 27 28 31 32 rings
6 6 9 10 11 16 18 rings
6 9 10 12 13 14 15 rings

> <PUBCHEM_HEAVY_ATOM_COUNT>
34

> <PUBCHEM_ATOM_DEF_STEREO_COUNT>
0

> <PUBCHEM_ATOM_UDEF_STEREO_COUNT>
0

> <PUBCHEM_BOND_DEF_STEREO_COUNT>
0

> <PUBCHEM_BOND_UDEF_STEREO_COUNT>
0

> <PUBCHEM_ISOTOPIC_ATOM_COUNT>
0

> <PUBCHEM_COMPONENT_COUNT>
1

> <PUBCHEM_CACTVS_TAUTO_COUNT>
5

> <PUBCHEM_CONFORMER_ID>
00B04F6300000004

> <PUBCHEM_MMFF94_ENERGY>
150.0354

> <PUBCHEM_FEATURE_SELFOVERLAP>
60.972

> <PUBCHEM_SHAPE_FINGERPRINT>
10 15 17561083596371096772
10076449 9 15213017168009308159
10100884 174 18265049326824326811
10299344 5 18408040706836299174
10930396 42 17775006796124371379
11135926 11 15430037625895328001
11181472 205 10231769890007756014
11497681 19 17749383737842021274
12082328 90 18412543180834266928
12539765 74 12175617417787299016
12664476 115 17561362877210551617
13914758 101 9943804500405949628
14118638 360 15719664365330492080
14705955 166 17274277063173382521
14849402 71 18337396053923741052
14856354 85 18342173379994175127
150020 25 12468359063807740158
15183329 4 16271920489934736256
15320294 125 18261113019878759447
15352257 5 18408882928232528202
15461852 350 8574422119731767881
17324776 126 16982345966458251031
18608769 82 18343300370791178690
195137 175 11239998966912809038
19611394 137 18130787901662663601
21095123 145 18272090517735713300
21130935 74 18189333477532992698
21315759 40 18186805760140010620
21792938 703 17604716706239950307
23389318 12 16515412884829473054
23559900 14 12540703656329825821
23569943 247 17389935670267178290
23576562 1 9294700087948525434
3178227 256 17275387616655446024
335507 130 18410295826343303910
3383291 50 16587750824125470112
3633792 109 11312059851349483820
397638 26 16272205301568221142
4098825 35 18413386541039888272
44802255 64 8646772184401014529
4516262 110 12319468641298941033
5028188 123 17822579305061063756
54039377 194 17749392611582461243
68570916 9 18339644546495726028
9896288 288 18338241445584699561
9953998 17 18202568376221242289
9962374 69 17458628952012866036

> <PUBCHEM_SHAPE_MULTIPOLES>
665.13
32.01
2.62
1.62
39.05
0.9
0.17
14.94
-10.3
-4.87
-0.01
-0.73
-0.32
-0.88

> <PUBCHEM_SHAPE_SELFOVERLAP>
1445.014

> <PUBCHEM_SHAPE_VOLUME>
366.5

> <PUBCHEM_COORDINATE_TYPE>
2
5
10

$$$$
9926791
  -OEChem-11282412143D

 43 45  0     1  0  0  0  0  0999 V2000
   -3.8387   -1.1860    1.2328 O   0  0  0  0  0  0  0  0  0  0  0  0
   -2.7859    0.5393    0.0847 N   0  0  0  0  0  0  0  0  0  0  0  0
    0.8909    0.1120    0.5831 N   0  0  0  0  0  0  0  0  0  0  0  0
    1.8727   -1.4591   -0.9231 N   0  0  0  0  0  0  0  0  0  0  0  0
    5.5328   -0.2180    0.2548 N   0  0  0  0  0  0  0  0  0  0  0  0
    4.2819   -1.7087   -1.1692 N   0  0  0  0  0  0  0  0  0  0  0  0
   -7.0088   -1.6817    0.4468 N   0  0  0  0  0  0  0  0  0  0  0  0
   -0.3481    0.2334   -0.1542 C   0  0  2  0  0  0  0  0  0  0  0  0
   -0.2788    1.3938   -1.1686 C   0  0  1  0  0  0  0  0  0  0  0  0
   -1.6398    1.5216   -1.8766 C   0  0  0  0  0  0  0  0  0  0  0  0
   -1.5246    0.3790    0.8136 C   0  0  0  0  0  0  0  0  0  0  0  0
   -2.8068    1.6339   -0.8943 C   0  0  0  0  0  0  0  0  0  0  0  0
    0.1444    2.7335   -0.5514 C   0  0  0  0  0  0  0  0  0  0  0  0
    2.0185   -0.4841    0.0103 C   0  0  0  0  0  0  0  0  0  0  0  0
   -3.8761   -0.2703    0.4066 C   0  0  0  0  0  0  0  0  0  0  0  0
    0.9345    0.6169    1.9528 C   0  0  0  0  0  0  0  0  0  0  0  0
    3.3083   -0.0918    0.3822 C   0  0  0  0  0  0  0  0  0  0  0  0
   -5.1670    0.0128   -0.3195 C   0  0  0  0  0  0  0  0  0  0  0  0
    4.3676   -0.7396   -0.2414 C   0  0  0  0  0  0  0  0  0  0  0  0
    3.8711    0.8497    1.2816 C   0  0  0  0  0  0  0  0  0  0  0  0
    2.9952   -2.0018   -1.4462 C   0  0  0  0  0  0  0  0  0  0  0  0
    5.2425    0.7497    1.1822 C   0  0  0  0  0  0  0  0  0  0  0  0
   -6.1859   -0.9347    0.1131 C   0  0  0  0  0  0  0  0  0  0  0  0
   -0.5315   -0.6914   -0.7201 H   0  0  0  0  0  0  0  0  0  0  0  0
    0.4696    1.1498   -1.9347 H   0  0  0  0  0  0  0  0  0  0  0  0
   -1.7924    0.6314   -2.5011 H   0  0  0  0  0  0  0  0  0  0  0  0
   -1.6411    2.3839   -2.5534 H   0  0  0  0  0  0  0  0  0  0  0  0
   -1.5909   -0.4964    1.4692 H   0  0  0  0  0  0  0  0  0  0  0  0
   -1.4553    1.2721    1.4452 H   0  0  0  0  0  0  0  0  0  0  0  0
   -2.7514    2.5718   -0.3302 H   0  0  0  0  0  0  0  0  0  0  0  0
   -3.7412    1.6608   -1.4572 H   0  0  0  0  0  0  0  0  0  0  0  0
    1.1811    2.6971   -0.2024 H   0  0  0  0  0  0  0  0  0  0  0  0
    0.0923    3.5315   -1.3004 H   0  0  0  0  0  0  0  0  0  0  0  0
   -0.4891    3.0285    0.2895 H   0  0  0  0  0  0  0  0  0  0  0  0
    1.7441    0.1611    2.5329 H   0  0  0  0  0  0  0  0  0  0  0  0
    0.0634    0.3434    2.5537 H   0  0  0  0  0  0  0  0  0  0  0  0
    1.0431    1.7050    1.9753 H   0  0  0  0  0  0  0  0  0  0  0  0
   -5.4873    1.0367   -0.1023 H   0  0  0  0  0  0  0  0  0  0  0  0
   -5.0071   -0.0963   -1.3969 H   0  0  0  0  0  0  0  0  0  0  0  0
    3.3745    1.5603    1.9251 H   0  0  0  0  0  0  0  0  0  0  0  0
    6.4626   -0.5013   -0.0217 H   0  0  0  0  0  0  0  0  0  0  0  0
    2.8383   -2.7770   -2.1885 H   0  0  0  0  0  0  0  0  0  0  0  0
    6.0365    1.2858    1.6827 H   0  0  0  0  0  0  0  0  0  0  0  0
  1 15  2  0  0  0  0
  2 11  1  0  0  0  0
  2 12  1  0  0  0  0
  2 15  1  0  0  0  0
  3  8  1  0  0  0  0
  3 14  1  0  0  0  0
  3 16  1  0  0  0  0
  4 14  2  0  0  0  0
  4 21  1  0  0  0  0
  5 19  1  0  0  0  0
  5 22  1  0  0  0  0
  5 41  1  0  0  0  0
  6 19  1  0  0  0  0
  6 21  2  0  0  0  0
  7 23  3  0  0  0  0
  8  9  1  0  0  0  0
  8 11  1  0  0  0  0
  8 24  1  0  0  0  0
  9 10  1  0  0  0  0
  9 13  1  0  0  0  0
  9 25  1  0  0  0  0
 10 12  1  0  0  0  0
 10 26  1  0  0  0  0
 10 27  1  0  0  0  0
 11 28  1  0  0  0  0
 11 29  1  0  0  0  0
 12 30  1  0  0  0  0
 12 31  1  0  0  0  0
 13 32  1  0  0  0  0
 13 33  1  0  0  0  0
 13 34  1  0  0  0  0
 14 17  1  0  0  0  0
 15 18  1  0  0  0  0
 16 35  1  0  0  0  0
 16 36  1  0  0  0  0
 16 37  1  0  0  0  0
 17 19  2  0  0  0  0
 17 20  1  0  0  0  0
 18 23  1  0  0  0  0
 18 38  1  0  0  0  0
 18 39  1  0  0  0  0
 20 22  2  0  0  0  0
 20 40  1  0  0  0  0
 21 42  1  0  0  0  0
 22 43  1  0  0  0  0
M  END
> <PUBCHEM_COMPOUND_CID>
9926791

> <PUBCHEM_CONFORMER_RMSD>
0.8

> <PUBCHEM_CONFORMER_DIVERSEORDER>
1
52
59
35
81
54
60
74
69
44
66
4
53
5
14
64
13
75
73
50
57
48
31
15
61
56
77
36
49
9
2
65
22
70
28
37
71
43
3
76
80
68
42
24
67
33
11
21
17
27
72
16
29
30
40
63
41
55
6
10
45
38
20
7
25
23
47
18
79
34
58
39
51
8
46
62
78
12
32
19
26

> <PUBCHEM_MMFF94_PARTIAL_CHARGES>
23
1 -0.57
11 0.3
12 0.3
14 0.41
15 0.57
16 0.37
18 0.26
19 0.11
2 -0.66
20 -0.15
21 0.47
22 -0.3
23 0.36
3 -0.84
4 -0.62
40 0.15
41 0.27
42 0.15
43 0.15
5 0.03
6 -0.57
7 -0.56
8 0.37

> <PUBCHEM_EFFECTIVE_ROTOR_COUNT>
5.2

> <PUBCHEM_PHARMACOPHORE_FEATURES>
9
1 1 acceptor
1 5 cation
1 5 donor
1 7 acceptor
3 3 4 14 cation
3 4 6 21 cation
5 5 17 19 20 22 rings
6 2 8 9 10 11 12 rings
6 4 6 14 17 19 21 rings

> <PUBCHEM_HEAVY_ATOM_COUNT>
23

> <PUBCHEM_ATOM_DEF_STEREO_COUNT>
2

> <PUBCHEM_ATOM_UDEF_STEREO_COUNT>
0

> <PUBCHEM_BOND_DEF_STEREO_COUNT>
0

> <PUBCHEM_BOND_UDEF_STEREO_COUNT>
0

> <PUBCHEM_ISOTOPIC_ATOM_COUNT>
0

> <PUBCHEM_COMPONENT_COUNT>
1

> <PUBCHEM_CACTVS_TAUTO_COUNT>
3

> <PUBCHEM_CONFORMER_ID>
0097788700000001

> <PUBCHEM_MMFF94_ENERGY>
66.3592

> <PUBCHEM_FEATURE_SELFOVERLAP>
45.9

> <PUBCHEM_SHAPE_FINGERPRINT>
10165383 225 17987797544722078648
11135609 12 18195245753335039779
12107183 9 16625768465484983907
12236239 1 15554443011422892752
12516196 113 18410293627367566361
12596602 18 16774080682986548891
12623949 98 17702961239714528870
12730499 353 18131067139372596166
12892183 10 17632301133766704665
13402501 40 18341896303106893959
13544653 18 18271814505651421793
13685833 64 18412267255372170731
13782708 43 18339364041891915422
14251752 14 15864339239200338199
14294032 229 16372680736194729813
14341114 176 17489873743378836835
14386348 63 18410293601360411675
15183329 4 13117992293417379527
15188451 53 16878211001299700440
15375462 189 16558741283351821170
15537594 2 16558743516613625724
15961568 22 17822296833710840012
17349148 13 15719676463878721040
1813 80 18259990361775030021
18222031 100 18260835903380444557
18335252 114 12540684960395597647
18785283 64 18198052780350067392
19141452 34 18343020030023801791
192875 21 15213022626685790876
20645477 70 17917712349573474182
21033648 29 17988625382013617065
21033650 10 17024885744680654132
21623969 137 18060137639331710118
22079108 93 17561074843560063322
22224240 67 18130779114143524002
23402539 116 17458338637107340218
23557571 272 18261955159047084084
23559900 14 17970909956246064134
2838139 119 11674872295662260175
29717793 49 15719390603603530450
314173 85 18259992561225390697
34797466 226 18333739034687187492
4325135 7 18187085091922694468
4340502 62 17703790348907066934
5104073 3 17987233335509380842
5385378 56 12319194896951822301
621550 34 18343295951607460764

> <PUBCHEM_SHAPE_MULTIPOLES>
437.57
13.46
1.96
1.5
11.37
0.42
0.03
-6.85
-2.43
0.29
0.83
-0.7
0.15
2.2

> <PUBCHEM_SHAPE_SELFOVERLAP>
933.286

> <PUBCHEM_SHAPE_VOLUME>
237.5

> <PUBCHEM_COORDINATE_TYPE>
2
5
10

$$$$
16722836
  -OEChem-11282412143D

 73 76  0     0  0  0  0  0  0999 V2000
   -0.9684   -1.7805   -0.4135 S   0  0  0  0  0  0  0  0  0  0  0  0
   -2.6985    3.1720    0.4031 O   0  0  0  0  0  0  0  0  0  0  0  0
   -2.1967   -2.3060    0.1687 O   0  0  0  0  0  0  0  0  0  0  0  0
   -0.8210   -0.3419   -0.5890 O   0  0  0  0  0  0  0  0  0  0  0  0
   -5.4031    0.8091    1.2024 N   0  0  0  0  0  0  0  0  0  0  0  0
   -0.7083   -2.5435   -1.9205 N   0  0  0  0  0  0  0  0  0  0  0  0
    3.8617   -1.3400    1.3101 N   0  0  0  0  0  0  0  0  0  0  0  0
    2.7918    2.8828   -0.4932 N   0  0  0  0  0  0  0  0  0  0  0  0
    3.3100    0.7821    0.4066 N   0  0  0  0  0  0  0  0  0  0  0  0
    5.0218    2.1672   -0.5726 N   0  0  0  0  0  0  0  0  0  0  0  0
   -6.7849    0.6459    0.7514 C   0  0  0  0  0  0  0  0  0  0  0  0
   -4.7459   -0.4565    0.8778 C   0  0  0  0  0  0  0  0  0  0  0  0
   -7.1242   -0.7692    1.1962 C   0  0  0  0  0  0  0  0  0  0  0  0
   -5.7838   -1.4926    1.2827 C   0  0  0  0  0  0  0  0  0  0  0  0
   -4.7474    1.9508    0.5821 C   0  0  0  0  0  0  0  0  0  0  0  0
   -3.3032    2.0570    1.0450 C   0  0  0  0  0  0  0  0  0  0  0  0
   -1.1088   -1.8670   -3.1625 C   0  0  0  0  0  0  0  0  0  0  0  0
   -2.5986   -1.5347   -3.0671 C   0  0  0  0  0  0  0  0  0  0  0  0
   -0.2784   -0.5910   -3.3074 C   0  0  0  0  0  0  0  0  0  0  0  0
   -0.8468   -2.8183   -4.3311 C   0  0  0  0  0  0  0  0  0  0  0  0
    0.3872   -2.3433    0.5322 C   0  0  0  0  0  0  0  0  0  0  0  0
   -1.3479    3.1004    0.1825 C   0  0  0  0  0  0  0  0  0  0  0  0
    1.5793   -1.6193    0.5427 C   0  0  0  0  0  0  0  0  0  0  0  0
    0.2775   -3.5171    1.2777 C   0  0  0  0  0  0  0  0  0  0  0  0
    2.6617   -2.0689    1.2989 C   0  0  0  0  0  0  0  0  0  0  0  0
   -0.7845    3.7561   -0.9123 C   0  0  0  0  0  0  0  0  0  0  0  0
   -0.5365    2.3723    1.0527 C   0  0  0  0  0  0  0  0  0  0  0  0
    1.3600   -3.9668    2.0339 C   0  0  0  0  0  0  0  0  0  0  0  0
    2.5521   -3.2428    2.0445 C   0  0  0  0  0  0  0  0  0  0  0  0
    1.4017    2.9557   -0.2665 C   0  0  0  0  0  0  0  0  0  0  0  0
    0.5902    3.6838   -1.1367 C   0  0  0  0  0  0  0  0  0  0  0  0
    0.8383    2.2999    0.8281 C   0  0  0  0  0  0  0  0  0  0  0  0
    4.2585   -0.1416    0.6671 C   0  0  0  0  0  0  0  0  0  0  0  0
    5.5906    0.0147    0.3426 C   0  0  0  0  0  0  0  0  0  0  0  0
    3.7548    1.8960   -0.2058 C   0  0  0  0  0  0  0  0  0  0  0  0
    5.9176    1.2010   -0.2821 C   0  0  0  0  0  0  0  0  0  0  0  0
    6.6321   -1.0057    0.6311 C   0  0  0  0  0  0  0  0  0  0  0  0
   -6.8684    0.7197   -0.3406 H   0  0  0  0  0  0  0  0  0  0  0  0
   -7.4566    1.3825    1.2031 H   0  0  0  0  0  0  0  0  0  0  0  0
   -3.8277   -0.6128    1.4509 H   0  0  0  0  0  0  0  0  0  0  0  0
   -4.5275   -0.5448   -0.1939 H   0  0  0  0  0  0  0  0  0  0  0  0
   -7.8045   -1.2590    0.4921 H   0  0  0  0  0  0  0  0  0  0  0  0
   -7.6064   -0.7631    2.1808 H   0  0  0  0  0  0  0  0  0  0  0  0
   -5.6136   -1.8358    2.3101 H   0  0  0  0  0  0  0  0  0  0  0  0
   -5.7525   -2.3686    0.6269 H   0  0  0  0  0  0  0  0  0  0  0  0
   -4.7758    1.8922   -0.5145 H   0  0  0  0  0  0  0  0  0  0  0  0
   -5.2731    2.8764    0.8489 H   0  0  0  0  0  0  0  0  0  0  0  0
   -3.2599    2.2013    2.1313 H   0  0  0  0  0  0  0  0  0  0  0  0
   -2.7677    1.1408    0.7765 H   0  0  0  0  0  0  0  0  0  0  0  0
    0.1412   -3.1176   -2.0067 H   0  0  0  0  0  0  0  0  0  0  0  0
   -2.8259   -0.7926   -2.2951 H   0  0  0  0  0  0  0  0  0  0  0  0
   -3.1918   -2.4299   -2.8463 H   0  0  0  0  0  0  0  0  0  0  0  0
   -2.9626   -1.1231   -4.0157 H   0  0  0  0  0  0  0  0  0  0  0  0
   -0.2351   -0.2869   -4.3609 H   0  0  0  0  0  0  0  0  0  0  0  0
    0.7558   -0.7313   -2.9723 H   0  0  0  0  0  0  0  0  0  0  0  0
   -0.7023    0.2714   -2.7865 H   0  0  0  0  0  0  0  0  0  0  0  0
   -1.1539   -2.3736   -5.2841 H   0  0  0  0  0  0  0  0  0  0  0  0
   -1.3963   -3.7587   -4.2069 H   0  0  0  0  0  0  0  0  0  0  0  0
    0.2174   -3.0708   -4.4060 H   0  0  0  0  0  0  0  0  0  0  0  0
    1.6421   -0.7389   -0.0832 H   0  0  0  0  0  0  0  0  0  0  0  0
   -0.6394   -4.0997    1.2788 H   0  0  0  0  0  0  0  0  0  0  0  0
   -1.4121    4.3238   -1.5937 H   0  0  0  0  0  0  0  0  0  0  0  0
   -0.9295    1.8781    1.9364 H   0  0  0  0  0  0  0  0  0  0  0  0
    1.2752   -4.8816    2.6133 H   0  0  0  0  0  0  0  0  0  0  0  0
    3.3876   -3.6053    2.6379 H   0  0  0  0  0  0  0  0  0  0  0  0
    1.0167    4.1980   -1.9942 H   0  0  0  0  0  0  0  0  0  0  0  0
    1.4368    1.7640    1.5571 H   0  0  0  0  0  0  0  0  0  0  0  0
    4.5706   -1.7315    1.9229 H   0  0  0  0  0  0  0  0  0  0  0  0
    3.1612    3.6316   -1.0714 H   0  0  0  0  0  0  0  0  0  0  0  0
    6.9368    1.4265   -0.5797 H   0  0  0  0  0  0  0  0  0  0  0  0
    6.7873   -1.1019    1.7105 H   0  0  0  0  0  0  0  0  0  0  0  0
    6.3493   -1.9793    0.2170 H   0  0  0  0  0  0  0  0  0  0  0  0
    7.5949   -0.7357    0.1834 H   0  0  0  0  0  0  0  0  0  0  0  0
  1  3  2  0  0  0  0
  1  4  2  0  0  0  0
  1  6  1  0  0  0  0
  1 21  1  0  0  0  0
  2 16  1  0  0  0  0
  2 22  1  0  0  0  0
  5 11  1  0  0  0  0
  5 12  1  0  0  0  0
  5 15  1  0  0  0  0
  6 17  1  0  0  0  0
  6 50  1  0  0  0  0
  7 25  1  0  0  0  0
  7 33  1  0  0  0  0
  7 68  1  0  0  0  0
  8 30  1  0  0  0  0
  8 35  1  0  0  0  0
  8 69  1  0  0  0  0
  9 33  2  0  0  0  0
  9 35  1  0  0  0  0
 10 35  2  0  0  0  0
 10 36  1  0  0  0  0
 11 13  1  0  0  0  0
 11 38  1  0  0  0  0
 11 39  1  0  0  0  0
 12 14  1  0  0  0  0
 12 40  1  0  0  0  0
 12 41  1  0  0  0  0
 13 14  1  0  0  0  0
 13 42  1  0  0  0  0
 13 43  1  0  0  0  0
 14 44  1  0  0  0  0
 14 45  1  0  0  0  0
 15 16  1  0  0  0  0
 15 46  1  0  0  0  0
 15 47  1  0  0  0  0
 16 48  1  0  0  0  0
 16 49  1  0  0  0  0
 17 18  1  0  0  0  0
 17 19  1  0  0  0  0
 17 20  1  0  0  0  0
 18 51  1  0  0  0  0
 18 52  1  0  0  0  0
 18 53  1  0  0  0  0
 19 54  1  0  0  0  0
 19 55  1  0  0  0  0
 19 56  1  0  0  0  0
 20 57  1  0  0  0  0
 20 58  1  0  0  0  0
 20 59  1  0  0  0  0
 21 23  1  0  0  0  0
 21 24  2  0  0  0  0
 22 26  2  0  0  0  0
 22 27  1  0  0  0  0
 23 25  2  0  0  0  0
 23 60  1  0  0  0  0
 24 28  1  0  0  0  0
 24 61  1  0  0  0  0
 25 29  1  0  0  0  0
 26 31  1  0  0  0  0
 26 62  1  0  0  0  0
 27 32  2  0  0  0  0
 27 63  1  0  0  0  0
 28 29  2  0  0  0  0
 28 64  1  0  0  0  0
 29 65  1  0  0  0  0
 30 31  2  0  0  0  0
 30 32  1  0  0  0  0
 31 66  1  0  0  0  0
 32 67  1  0  0  0  0
 33 34  1  0  0  0  0
 34 36  2  0  0  0  0
 34 37  1  0  0  0  0
 36 70  1  0  0  0  0
 37 71  1  0  0  0  0
 37 72  1  0  0  0  0
 37 73  1  0  0  0  0
M  END
> <PUBCHEM_COMPOUND_CID>
16722836

> <PUBCHEM_CONFORMER_RMSD>
1.2

> <PUBCHEM_CONFORMER_DIVERSEORDER>
1
77
139
5
60
54
46
112
86
141
10
92
78
29
134
3
85
140
81
126
115
107
96
24
44
38
74
57
144
91
42
87
84
94
21
6
49
31
155
39
103
102
124
99
135
56
111
146
66
72
106
98
50
16
70
100
47
138
75
63
4
32
48
154
113
34
95
53
116
43
51
25
79
130
133
64
52
33
137
15
88
45
90
123
28
69
120
119
145
23
105
152
40
62
122
67
18
59
147
73
97
121
149
143
58
131
109
2
14
80
20
82
128
83
36
68
142
13
114
65
153
71
93
118
127
27
19
151
7
136
35
30
104
125
12
22
41
110
108
76
101
132
129
148
55
37
11
117
150
8
17
61
9
89
26

> <PUBCHEM_MMFF94_PARTIAL_CHARGES>
44
1 1.45
10 -0.62
11 0.27
12 0.27
15 0.27
16 0.28
17 0.36
2 -0.36
21 -0.01
22 0.08
23 -0.15
24 -0.15
25 0.1
26 -0.15
27 -0.15
28 -0.15
29 -0.15
3 -0.65
30 0.1
31 -0.15
32 -0.15
33 0.41
34 -0.14
35 0.72
36 0.16
37 0.14
4 -0.65
5 -0.81
50 0.42
6 -0.91
60 0.15
61 0.15
62 0.15
63 0.15
64 0.15
65 0.15
66 0.15
67 0.15
68 0.4
69 0.4
7 -0.6
70 0.15
8 -0.6
9 -0.62

> <PUBCHEM_EFFECTIVE_ROTOR_COUNT>
12

> <PUBCHEM_PHARMACOPHORE_FEATURES>
13
1 2 acceptor
1 3 acceptor
1 4 acceptor
1 5 cation
1 6 donor
1 7 donor
1 8 donor
4 17 18 19 20 hydrophobe
4 8 9 10 35 cation
5 5 11 12 13 14 rings
6 21 23 24 25 28 29 rings
6 22 26 27 30 31 32 rings
6 9 10 33 34 35 36 rings

> <PUBCHEM_HEAVY_ATOM_COUNT>
37

> <PUBCHEM_ATOM_DEF_STEREO_COUNT>
0

> <PUBCHEM_ATOM_UDEF_STEREO_COUNT>
0

> <PUBCHEM_BOND_DEF_STEREO_COUNT>
0

> <PUBCHEM_BOND_UDEF_STEREO_COUNT>
0

> <PUBCHEM_ISOTOPIC_ATOM_COUNT>
0

> <PUBCHEM_COMPONENT_COUNT>
1

> <PUBCHEM_CACTVS_TAUTO_COUNT>
9

> <PUBCHEM_CONFORMER_ID>
00FF2B9400000001

> <PUBCHEM_MMFF94_ENERGY>
116.2951

> <PUBCHEM_FEATURE_SELFOVERLAP>
65.989

> <PUBCHEM_SHAPE_FINGERPRINT>
10006869 2 18338791200575531203
10010297 198 18198335165965573591
10190108 129 18261404299352449640
10816530 23 16700890690566491952
11578080 2 16951673693920286597
11765517 15 10043996912697518779
12156800 1 18049198632696278476
12677640 9 17903083561951145699
13165054 342 16816901391042777213
1361 2 18260837028710051120
14004919 189 17973687399685300994
14279260 333 18335413514600274538
14840074 17 18201432563408619597
15274700 242 18115006598848464664
15297060 5 16988847176927875279
15320467 1 18334018302293178115
15815584 197 18118714130376338065
15968369 153 18341891935330603632
19315092 285 16371836345154337579
19319366 153 18408320003847814136
20028762 73 18411143511200962928
21133410 62 18040983047464522167
469060 322 17386291987020564436
563151 248 18060137669380546564
581034 39 17346593054890869927

> <PUBCHEM_SHAPE_MULTIPOLES>
717.8
13.18
5.52
2.85
6.41
1.19
4.42
1.63
-7.31
-1.02
-0.21
1.76
-3.58
-2.67

> <PUBCHEM_SHAPE_SELFOVERLAP>
1507.391

> <PUBCHEM_SHAPE_VOLUME>
407.2

> <PUBCHEM_COORDINATE_TYPE>
2
5
10

$$$$
46216796
  -OEChem-11282412143D

 67 71  0     0  0  0  0  0  0999 V2000
   -3.6203    1.4715    1.3344 O   0  0  0  0  0  0  0  0  0  0  0  0
   -2.2548   -1.1106    0.5955 O   0  0  0  0  0  0  0  0  0  0  0  0
    1.8007   -3.4971   -0.9857 O   0  0  0  0  0  0  0  0  0  0  0  0
   -5.4760   -0.1415   -0.0964 N   0  0  0  0  0  0  0  0  0  0  0  0
    1.3645    3.3439   -0.3792 N   0  0  0  0  0  0  0  0  0  0  0  0
    2.9515    1.5421   -0.1710 N   0  0  0  0  0  0  0  0  0  0  0  0
    3.6012    3.6692   -0.9925 N   0  0  0  0  0  0  0  0  0  0  0  0
   -6.5512   -1.1286   -0.1915 C   0  0  0  0  0  0  0  0  0  0  0  0
   -5.1154    0.1617   -1.4809 C   0  0  0  0  0  0  0  0  0  0  0  0
   -6.0666   -2.0558   -1.2963 C   0  0  0  0  0  0  0  0  0  0  0  0
   -5.1203   -1.2089   -2.1418 C   0  0  0  0  0  0  0  0  0  0  0  0
   -5.8749    1.0448    0.6463 C   0  0  0  0  0  0  0  0  0  0  0  0
   -4.7441    2.0604    0.6833 C   0  0  0  0  0  0  0  0  0  0  0  0
   -2.3851    1.8860    0.9328 C   0  0  0  0  0  0  0  0  0  0  0  0
   -1.2784    1.0323    0.9847 C   0  0  0  0  0  0  0  0  0  0  0  0
   -2.2429    3.1847    0.4571 C   0  0  0  0  0  0  0  0  0  0  0  0
   -0.0249    1.5008    0.5508 C   0  0  0  0  0  0  0  0  0  0  0  0
   -1.4358   -0.3721    1.5026 C   0  0  0  0  0  0  0  0  0  0  0  0
    0.1420    2.8076    0.0697 C   0  0  0  0  0  0  0  0  0  0  0  0
   -0.9937    3.6379    0.0317 C   0  0  0  0  0  0  0  0  0  0  0  0
   -2.4420   -2.4658    1.0002 C   0  0  0  0  0  0  0  0  0  0  0  0
    2.6659    2.8213   -0.5081 C   0  0  0  0  0  0  0  0  0  0  0  0
    4.4427   -0.3281    0.0580 C   0  0  0  0  0  0  0  0  0  0  0  0
    3.5751   -2.6153    0.3509 C   0  0  0  0  0  0  0  0  0  0  0  0
    4.2207    1.0819   -0.3250 C   0  0  0  0  0  0  0  0  0  0  0  0
    3.3922   -1.2655    0.0015 C   0  0  0  0  0  0  0  0  0  0  0  0
    2.4170   -3.5752    0.2999 C   0  0  0  0  0  0  0  0  0  0  0  0
    5.6937   -0.7943    0.4975 C   0  0  0  0  0  0  0  0  0  0  0  0
   -1.4128   -3.4022    0.4340 C   0  0  0  0  0  0  0  0  0  0  0  0
    4.8322   -3.0380    0.7862 C   0  0  0  0  0  0  0  0  0  0  0  0
    5.2200    1.9007   -0.8204 C   0  0  0  0  0  0  0  0  0  0  0  0
    5.8863   -2.1314    0.8570 C   0  0  0  0  0  0  0  0  0  0  0  0
    0.5029   -4.0906   -1.0225 C   0  0  0  0  0  0  0  0  0  0  0  0
   -0.5209   -3.1147   -0.5259 C   0  0  0  0  0  0  0  0  0  0  0  0
    4.8515    3.1889   -1.1370 C   0  0  0  0  0  0  0  0  0  0  0  0
   -7.5028   -0.6679   -0.4864 H   0  0  0  0  0  0  0  0  0  0  0  0
   -6.7010   -1.6673    0.7494 H   0  0  0  0  0  0  0  0  0  0  0  0
   -4.1262    0.6191   -1.5790 H   0  0  0  0  0  0  0  0  0  0  0  0
   -5.8571    0.8094   -1.9658 H   0  0  0  0  0  0  0  0  0  0  0  0
   -6.9014   -2.4434   -1.8889 H   0  0  0  0  0  0  0  0  0  0  0  0
   -5.5255   -2.9126   -0.8784 H   0  0  0  0  0  0  0  0  0  0  0  0
   -4.1170   -1.6514   -2.1288 H   0  0  0  0  0  0  0  0  0  0  0  0
   -5.4488   -1.1515   -3.1843 H   0  0  0  0  0  0  0  0  0  0  0  0
   -6.1152    0.7478    1.6747 H   0  0  0  0  0  0  0  0  0  0  0  0
   -6.7702    1.5112    0.2165 H   0  0  0  0  0  0  0  0  0  0  0  0
   -5.0678    2.9238    1.2774 H   0  0  0  0  0  0  0  0  0  0  0  0
   -4.5254    2.4130   -0.3317 H   0  0  0  0  0  0  0  0  0  0  0  0
   -3.0633    3.8957    0.4324 H   0  0  0  0  0  0  0  0  0  0  0  0
    0.8136    0.8156    0.6062 H   0  0  0  0  0  0  0  0  0  0  0  0
   -1.9013   -0.3446    2.4954 H   0  0  0  0  0  0  0  0  0  0  0  0
   -0.4588   -0.8595    1.6017 H   0  0  0  0  0  0  0  0  0  0  0  0
   -0.9086    4.6620   -0.3281 H   0  0  0  0  0  0  0  0  0  0  0  0
    1.3118    4.3126   -0.6804 H   0  0  0  0  0  0  0  0  0  0  0  0
   -3.4258   -2.7808    0.6374 H   0  0  0  0  0  0  0  0  0  0  0  0
   -2.4628   -2.5426    2.0937 H   0  0  0  0  0  0  0  0  0  0  0  0
    2.4035   -0.9510   -0.3304 H   0  0  0  0  0  0  0  0  0  0  0  0
    1.7124   -3.3106    1.0972 H   0  0  0  0  0  0  0  0  0  0  0  0
    2.7515   -4.6065    0.4592 H   0  0  0  0  0  0  0  0  0  0  0  0
    6.5434   -0.1207    0.5833 H   0  0  0  0  0  0  0  0  0  0  0  0
    4.9997   -4.0719    1.0758 H   0  0  0  0  0  0  0  0  0  0  0  0
   -1.4112   -4.4019    0.8633 H   0  0  0  0  0  0  0  0  0  0  0  0
    6.8631   -2.4628    1.1984 H   0  0  0  0  0  0  0  0  0  0  0  0
    6.2396    1.5704   -0.9742 H   0  0  0  0  0  0  0  0  0  0  0  0
    0.2836   -4.3159   -2.0714 H   0  0  0  0  0  0  0  0  0  0  0  0
    0.4987   -5.0394   -0.4735 H   0  0  0  0  0  0  0  0  0  0  0  0
   -0.5126   -2.1291   -0.9832 H   0  0  0  0  0  0  0  0  0  0  0  0
    5.5747    3.8940   -1.5329 H   0  0  0  0  0  0  0  0  0  0  0  0
  1 13  1  0  0  0  0
  1 14  1  0  0  0  0
  2 18  1  0  0  0  0
  2 21  1  0  0  0  0
  3 27  1  0  0  0  0
  3 33  1  0  0  0  0
  4  8  1  0  0  0  0
  4  9  1  0  0  0  0
  4 12  1  0  0  0  0
  5 19  1  0  0  0  0
  5 22  1  0  0  0  0
  5 53  1  0  0  0  0
  6 22  1  0  0  0  0
  6 25  2  0  0  0  0
  7 22  2  0  0  0  0
  7 35  1  0  0  0  0
  8 10  1  0  0  0  0
  8 36  1  0  0  0  0
  8 37  1  0  0  0  0
  9 11  1  0  0  0  0
  9 38  1  0  0  0  0
  9 39  1  0  0  0  0
 10 11  1  0  0  0  0
 10 40  1  0  0  0  0
 10 41  1  0  0  0  0
 11 42  1  0  0  0  0
 11 43  1  0  0  0  0
 12 13  1  0  0  0  0
 12 44  1  0  0  0  0
 12 45  1  0  0  0  0
 13 46  1  0  0  0  0
 13 47  1  0  0  0  0
 14 15  2  0  0  0  0
 14 16  1  0  0  0  0
 15 17  1  0  0  0  0
 15 18  1  0  0  0  0
 16 20  2  0  0  0  0
 16 48  1  0  0  0  0
 17 19  2  0  0  0  0
 17 49  1  0  0  0  0
 18 50  1  0  0  0  0
 18 51  1  0  0  0  0
 19 20  1  0  0  0  0
 20 52  1  0  0  0  0
 21 29  1  0  0  0  0
 21 54  1  0  0  0  0
 21 55  1  0  0  0  0
 23 25  1  0  0  0  0
 23 26  1  0  0  0  0
 23 28  2  0  0  0  0
 24 26  2  0  0  0  0
 24 27  1  0  0  0  0
 24 30  1  0  0  0  0
 25 31  1  0  0  0  0
 26 56  1  0  0  0  0
 27 57  1  0  0  0  0
 27 58  1  0  0  0  0
 28 32  1  0  0  0  0
 28 59  1  0  0  0  0
 29 34  2  0  0  0  0
 29 61  1  0  0  0  0
 30 32  2  0  0  0  0
 30 60  1  0  0  0  0
 31 35  2  0  0  0  0
 31 63  1  0  0  0  0
 32 62  1  0  0  0  0
 33 34  1  0  0  0  0
 33 64  1  0  0  0  0
 33 65  1  0  0  0  0
 34 66  1  0  0  0  0
 35 67  1  0  0  0  0
M  END
> <PUBCHEM_COMPOUND_CID>
46216796

> <PUBCHEM_CONFORMER_RMSD>
1

> <PUBCHEM_CONFORMER_DIVERSEORDER>
4
24
72
55
10
38
34
74
48
21
59
3
15
75
60
68
51
37
81
54
30
23
71
26
20
61
65
14
53
6
67
50
47
35
62
41
49
82
1
64
40
27
33
22
70
25
66
32
45
76
56
42
79
58
12
73
8
36
29
78
77
43
46
80
39
16
17
13
28
69
52
5
19
2
31
11
57
9
18
44
7
63

> <PUBCHEM_MMFF94_PARTIAL_CHARGES>
44
1 -0.36
12 0.27
13 0.28
14 0.08
15 -0.14
16 -0.15
17 -0.15
18 0.42
19 0.1
2 -0.56
20 -0.15
21 0.42
22 0.72
24 -0.14
25 0.31
26 -0.15
27 0.42
28 -0.15
29 -0.29
3 -0.56
30 -0.15
31 -0.15
32 -0.15
33 0.42
34 -0.29
35 0.16
4 -0.81
48 0.15
49 0.15
5 -0.6
52 0.15
53 0.4
56 0.15
59 0.15
6 -0.62
60 0.15
61 0.15
62 0.15
63 0.15
66 0.15
67 0.15
7 -0.62
8 0.27
9 0.27

> <PUBCHEM_EFFECTIVE_ROTOR_COUNT>
6.4

> <PUBCHEM_PHARMACOPHORE_FEATURES>
11
1 1 acceptor
1 2 acceptor
1 3 acceptor
1 4 cation
1 5 donor
1 6 acceptor
4 5 6 7 22 cation
5 4 8 9 10 11 rings
6 14 15 16 17 19 20 rings
6 23 24 26 28 30 32 rings
6 6 7 22 25 31 35 rings

> <PUBCHEM_HEAVY_ATOM_COUNT>
35

> <PUBCHEM_ATOM_DEF_STEREO_COUNT>
0

> <PUBCHEM_ATOM_UDEF_STEREO_COUNT>
0

> <PUBCHEM_BOND_DEF_STEREO_COUNT>
1

> <PUBCHEM_BOND_UDEF_STEREO_COUNT>
0

> <PUBCHEM_ISOTOPIC_ATOM_COUNT>
0

> <PUBCHEM_COMPONENT_COUNT>
1

> <PUBCHEM_CACTVS_TAUTO_COUNT>
3

> <PUBCHEM_CONFORMER_ID>
02C1365C00000004

> <PUBCHEM_MMFF94_ENERGY>
104.0064

> <PUBCHEM_FEATURE_SELFOVERLAP>
55.823

> <PUBCHEM_SHAPE_FINGERPRINT>
10622 236 18341041948122326197
11135609 187 18337950190413794905
11135926 11 18189063151985836636
11227688 84 17838884182576901679
11513181 2 18129673993162041318
12645989 146 17908709432343839014
13165054 189 17697339326168837185
13165054 235 18270946965355204815
1361 2 18410295808878461680
13947947 19 18409455778480959022
14117953 113 18339366241162532206
14394314 77 18342739593975977185
14784336 7 18201438103474002697
15001296 14 18335422400296044874
15183329 4 18263078967526425581
15250474 111 18342739581259418537
15264996 151 18260828237286054883
15274700 147 14865145213374971957
15320467 1 18337114441174922978
16628084 112 18408040698130540925
19930381 70 17904772076497329456
19958102 18 18261385706766351997
20028762 73 18272089357957640238
20764821 26 18410865360054302406
21792938 131 18200019785952495915
22122407 14 18335143132606373450
3459 83 18409727370426457665
3729539 64 18335975463408798309
373842 8 18409168839414460235
3882209 13 17394135786936006034
4015057 19 18333453157553972353
45266715 3 17410182407966639989
4573279 73 18343015601901736391
6036956 94 18263372553920774469
6371009 1 18339353085466948242
99344 41 18339641131701371745

> <PUBCHEM_SHAPE_MULTIPOLES>
682.75
15.22
6.17
1.31
6.67
0.62
-0.28
2.46
-2.45
-4.42
-0.9
1.18
0.2
-3.37

> <PUBCHEM_SHAPE_SELFOVERLAP>
1460.39

> <PUBCHEM_SHAPE_VOLUME>
375.5

> <PUBCHEM_COORDINATE_TYPE>
2
5
10

$$$$
71584930
  -OEChem-11282412143D

 54 57  0     0  0  0  0  0  0999 V2000
    2.2009   -4.0820   -0.5503 Br  0  0  0  0  0  0  0  0  0  0  0  0
   -2.9788   -4.1955   -0.8548 F   0  0  0  0  0  0  0  0  0  0  0  0
    1.5185   -1.3362    2.3265 O   0  0  0  0  0  0  0  0  0  0  0  0
   -2.8313    0.7700    0.0855 O   0  0  0  0  0  0  0  0  0  0  0  0
    3.2021    0.0460    1.5123 N   0  0  0  0  0  0  0  0  0  0  0  0
    4.9433    1.9215   -1.8779 N   0  0  0  0  0  0  0  0  0  0  0  0
    6.5792    2.9428   -0.4853 N   0  0  0  0  0  0  0  0  0  0  0  0
   -3.2969   -1.4823   -0.3609 N   0  0  0  0  0  0  0  0  0  0  0  0
   -5.0340    0.0279   -0.1713 N   0  0  0  0  0  0  0  0  0  0  0  0
    3.8094    0.6887    0.3884 C   0  0  0  0  0  0  0  0  0  0  0  0
    1.5334   -0.9823   -0.0054 C   0  0  0  0  0  0  0  0  0  0  0  0
    3.2674    0.4821   -0.8813 C   0  0  0  0  0  0  0  0  0  0  0  0
    2.0789   -0.7799    1.3797 C   0  0  0  0  0  0  0  0  0  0  0  0
    3.7693    0.2654    2.8407 C   0  0  0  0  0  0  0  0  0  0  0  0
    2.1087   -0.3790   -1.0551 C   0  0  0  0  0  0  0  0  0  0  0  0
    0.3718   -1.8612   -0.2333 C   0  0  0  0  0  0  0  0  0  0  0  0
    4.9277    1.5213    0.5074 C   0  0  0  0  0  0  0  0  0  0  0  0
    3.8649    1.1140   -1.9683 C   0  0  0  0  0  0  0  0  0  0  0  0
    5.4470    2.1039   -0.6402 C   0  0  0  0  0  0  0  0  0  0  0  0
    5.0372   -0.5385    3.0420 C   0  0  0  0  0  0  0  0  0  0  0  0
   -0.8958   -1.2802   -0.1936 C   0  0  0  0  0  0  0  0  0  0  0  0
    0.5053   -3.2274   -0.4819 C   0  0  0  0  0  0  0  0  0  0  0  0
   -2.0298   -2.0655   -0.4021 C   0  0  0  0  0  0  0  0  0  0  0  0
   -0.6286   -4.0124   -0.6906 C   0  0  0  0  0  0  0  0  0  0  0  0
   -1.8962   -3.4315   -0.6507 C   0  0  0  0  0  0  0  0  0  0  0  0
    7.2064    3.5998   -1.5850 C   0  0  0  0  0  0  0  0  0  0  0  0
   -3.6395   -0.1285   -0.1258 C   0  0  0  0  0  0  0  0  0  0  0  0
   -5.7839    1.2139    0.0105 C   0  0  0  0  0  0  0  0  0  0  0  0
   -7.1759    1.1780   -0.0709 C   0  0  0  0  0  0  0  0  0  0  0  0
   -5.1312    2.4191    0.2699 C   0  0  0  0  0  0  0  0  0  0  0  0
   -7.9155    2.3472    0.1072 C   0  0  0  0  0  0  0  0  0  0  0  0
   -5.8708    3.5885    0.4480 C   0  0  0  0  0  0  0  0  0  0  0  0
   -7.2629    3.5524    0.3668 C   0  0  0  0  0  0  0  0  0  0  0  0
    3.9332    1.3359    3.0061 H   0  0  0  0  0  0  0  0  0  0  0  0
    3.0438   -0.0394    3.6038 H   0  0  0  0  0  0  0  0  0  0  0  0
    1.7312   -0.5182   -2.0644 H   0  0  0  0  0  0  0  0  0  0  0  0
    5.3923    1.7429    1.4613 H   0  0  0  0  0  0  0  0  0  0  0  0
    3.4840    0.9867   -2.9776 H   0  0  0  0  0  0  0  0  0  0  0  0
    4.8321   -1.6102    2.9410 H   0  0  0  0  0  0  0  0  0  0  0  0
    5.4328   -0.3683    4.0485 H   0  0  0  0  0  0  0  0  0  0  0  0
    5.8282   -0.2943    2.3291 H   0  0  0  0  0  0  0  0  0  0  0  0
   -0.9350   -0.2182    0.0049 H   0  0  0  0  0  0  0  0  0  0  0  0
   -0.5457   -5.0785   -0.8863 H   0  0  0  0  0  0  0  0  0  0  0  0
    7.0830    2.8813    0.3929 H   0  0  0  0  0  0  0  0  0  0  0  0
   -4.0736   -2.1189   -0.5219 H   0  0  0  0  0  0  0  0  0  0  0  0
    7.5898    2.8774   -2.3130 H   0  0  0  0  0  0  0  0  0  0  0  0
    8.0527    4.1960   -1.2299 H   0  0  0  0  0  0  0  0  0  0  0  0
    6.5118    4.2786   -2.0903 H   0  0  0  0  0  0  0  0  0  0  0  0
   -5.5812   -0.8088   -0.3570 H   0  0  0  0  0  0  0  0  0  0  0  0
   -7.6969    0.2455   -0.2727 H   0  0  0  0  0  0  0  0  0  0  0  0
   -4.0592    2.5298    0.3477 H   0  0  0  0  0  0  0  0  0  0  0  0
   -8.9993    2.3194    0.0438 H   0  0  0  0  0  0  0  0  0  0  0  0
   -5.3640    4.5278    0.6500 H   0  0  0  0  0  0  0  0  0  0  0  0
   -7.8387    4.4628    0.5055 H   0  0  0  0  0  0  0  0  0  0  0  0
  1 22  1  0  0  0  0
  2 25  1  0  0  0  0
  3 13  2  0  0  0  0
  4 27  2  0  0  0  0
  5 10  1  0  0  0  0
  5 13  1  0  0  0  0
  5 14  1  0  0  0  0
  6 18  1  0  0  0  0
  6 19  2  0  0  0  0
  7 19  1  0  0  0  0
  7 26  1  0  0  0  0
  7 44  1  0  0  0  0
  8 23  1  0  0  0  0
  8 27  1  0  0  0  0
  8 45  1  0  0  0  0
  9 27  1  0  0  0  0
  9 28  1  0  0  0  0
  9 49  1  0  0  0  0
 10 12  1  0  0  0  0
 10 17  2  0  0  0  0
 11 13  1  0  0  0  0
 11 15  2  0  0  0  0
 11 16  1  0  0  0  0
 12 15  1  0  0  0  0
 12 18  2  0  0  0  0
 14 20  1  0  0  0  0
 14 34  1  0  0  0  0
 14 35  1  0  0  0  0
 15 36  1  0  0  0  0
 16 21  2  0  0  0  0
 16 22  1  0  0  0  0
 17 19  1  0  0  0  0
 17 37  1  0  0  0  0
 18 38  1  0  0  0  0
 20 39  1  0  0  0  0
 20 40  1  0  0  0  0
 20 41  1  0  0  0  0
 21 23  1  0  0  0  0
 21 42  1  0  0  0  0
 22 24  2  0  0  0  0
 23 25  2  0  0  0  0
 24 25  1  0  0  0  0
 24 43  1  0  0  0  0
 26 46  1  0  0  0  0
 26 47  1  0  0  0  0
 26 48  1  0  0  0  0
 28 29  2  0  0  0  0
 28 30  1  0  0  0  0
 29 31  1  0  0  0  0
 29 50  1  0  0  0  0
 30 32  2  0  0  0  0
 30 51  1  0  0  0  0
 31 33  2  0  0  0  0
 31 52  1  0  0  0  0
 32 33  1  0  0  0  0
 32 53  1  0  0  0  0
 33 54  1  0  0  0  0
M  END
> <PUBCHEM_COMPOUND_CID>
71584930

> <PUBCHEM_CONFORMER_RMSD>
1

> <PUBCHEM_CONFORMER_DIVERSEORDER>
1
9
15
5
14
19
22
8
7
21
16
13
10
12
4
26
25
11
2
3
27
24
18
6
28
17
29
20
23

> <PUBCHEM_MMFF94_PARTIAL_CHARGES>
45
1 -0.11
10 0.12
11 -0.01
12 0.03
13 0.62
14 0.3
15 -0.18
16 0.03
17 -0.15
18 0.16
19 0.41
2 -0.19
21 -0.15
22 0.11
23 0.12
24 -0.15
25 0.19
26 0.37
27 0.69
28 0.12
29 -0.15
3 -0.57
30 -0.15
31 -0.15
32 -0.15
33 -0.15
36 0.15
37 0.15
38 0.15
4 -0.57
42 0.15
43 0.15
44 0.4
45 0.37
49 0.37
5 -0.48
50 0.15
51 0.15
52 0.15
53 0.15
54 0.15
6 -0.62
7 -0.87
8 -0.55
9 -0.55

> <PUBCHEM_EFFECTIVE_ROTOR_COUNT>
7

> <PUBCHEM_PHARMACOPHORE_FEATURES>
11
1 1 hydrophobe
1 3 acceptor
1 4 acceptor
1 7 donor
1 8 donor
1 9 donor
3 6 7 19 cation
6 16 21 22 23 24 25 rings
6 28 29 30 31 32 33 rings
6 5 10 11 12 13 15 rings
6 6 10 12 17 18 19 rings

> <PUBCHEM_HEAVY_ATOM_COUNT>
33

> <PUBCHEM_ATOM_DEF_STEREO_COUNT>
0

> <PUBCHEM_ATOM_UDEF_STEREO_COUNT>
0

> <PUBCHEM_BOND_DEF_STEREO_COUNT>
0

> <PUBCHEM_BOND_UDEF_STEREO_COUNT>
0

> <PUBCHEM_ISOTOPIC_ATOM_COUNT>
0

> <PUBCHEM_COMPONENT_COUNT>
1

> <PUBCHEM_CACTVS_TAUTO_COUNT>
15

> <PUBCHEM_CONFORMER_ID>
04444CA200000001

> <PUBCHEM_MMFF94_ENERGY>
112.7416

> <PUBCHEM_FEATURE_SELFOVERLAP>
55.895

> <PUBCHEM_SHAPE_FINGERPRINT>
10050765 1 18411703171310818623
10939801 23 18260552238019009893
11059845 2 18196625511351884402
11720765 8 16986596334696913734
1200032 147 18187655699749920300
12107183 9 18335970979442518114
12236239 1 17607507318781547510
12422481 6 17750224812565865445
12788726 201 17974844274643223875
12895837 130 18190470543521530692
13540713 5 18338782486098398575
13726171 33 18337680818111677400
13782708 43 10735578182597760409
13965767 371 18186795868313396134
14294032 229 18271249438807287199
14664723 55 18338532901132268956
14747282 540 18338229354466628452
14849402 71 18050289172301630223
14937079 2 18125157130676407190
15152005 290 18411141363332608965
15198563 99 17769928301892234687
15238133 3 18342446054662075912
15297060 5 18271536389434225080
15439362 3 18410581669618805086
15448158 71 18263908982587721245
15513586 35 17027140044350240909
15803439 3 16845296051006507303
16126227 98 18411706517079214445
16992752 21 8790886307013321970
16992828 155 15180880938089366729
19053607 189 18340481171749670993
19319366 153 17894904105751344121
19438510 23 18186806897884416089
21033650 10 18123192561532751242
21133410 127 18188211983498491757
21796203 349 16662581330954547562
22149856 69 18198635333530733833
23522609 53 17533506883813777740
23569914 2 16985713663199471864
2748736 6 18410567358771794397
3918712 181 18341891870922638993
44249763 50 17417511606416650317
44880568 143 18051426351394155108
45377200 153 15625641926984992853
5219985 13 18341892966280802087
5718773 13 9151176432875981493
57724786 102 18335134233533895015
6327066 14 18410577305572809989
7808743 9 18411136982465654839
7970288 3 9079118843344082325
9849439 229 18412539903821575931
9896288 288 18044945803167138114

> <PUBCHEM_SHAPE_MULTIPOLES>
641.15
19.43
5.62
1.87
24.66
2.98
1.48
-30.78
-0.46
0.9
-2.25
-4.67
-0.34
-3.58

> <PUBCHEM_SHAPE_SELFOVERLAP>
1384.99

> <PUBCHEM_SHAPE_VOLUME>
357.9

> <PUBCHEM_COORDINATE_TYPE>
2
5
10

$$$$
118878093
  -OEChem-11282412143D

 49 53  0     1  0  0  0  0  0999 V2000
   -1.7627   -3.6657   -0.0310 F   0  0  0  0  0  0  0  0  0  0  0  0
   -1.3749   -2.0350    1.4222 F   0  0  0  0  0  0  0  0  0  0  0  0
   -4.3789   -0.2125    1.5146 O   0  0  0  0  0  0  0  0  0  0  0  0
   -3.1548    0.3059   -0.3770 N   0  0  0  0  0  0  0  0  0  0  0  0
   -0.6990    1.6322   -0.2508 N   0  0  0  0  0  0  0  0  0  0  0  0
    1.6165    1.2465    0.0984 N   0  0  0  0  0  0  0  0  0  0  0  0
    3.0123    3.0271    0.9282 N   0  0  0  0  0  0  0  0  0  0  0  0
    3.9102    0.9105    0.4595 N   0  0  0  0  0  0  0  0  0  0  0  0
    3.7228   -2.4770   -0.6191 N   0  0  0  0  0  0  0  0  0  0  0  0
    5.0390   -2.4570   -0.3475 N   0  0  0  0  0  0  0  0  0  0  0  0
   -2.2167    0.0183   -1.4438 C   0  0  1  0  0  0  0  0  0  0  0  0
   -3.2114    1.7476   -0.2843 C   0  0  2  0  0  0  0  0  0  0  0  0
   -3.5754   -2.0164    0.2464 C   0  0  1  0  0  0  0  0  0  0  0  0
   -2.6136    1.0319   -2.5245 C   0  0  0  0  0  0  0  0  0  0  0  0
   -3.2764    2.1818   -1.7526 C   0  0  0  0  0  0  0  0  0  0  0  0
   -0.8039    0.3063   -0.9078 C   0  0  0  0  0  0  0  0  0  0  0  0
   -1.9067    2.2203    0.3783 C   0  0  0  0  0  0  0  0  0  0  0  0
   -2.3695   -2.7028    0.7436 C   0  0  0  0  0  0  0  0  0  0  0  0
   -3.6722   -2.9757    1.3976 C   0  0  0  0  0  0  0  0  0  0  0  0
   -3.7401   -0.5588    0.5253 C   0  0  0  0  0  0  0  0  0  0  0  0
    0.5687    2.0951    0.1473 C   0  0  0  0  0  0  0  0  0  0  0  0
    0.6626    3.4056    0.5693 C   0  0  0  0  0  0  0  0  0  0  0  0
    1.9217    3.8211    0.9518 C   0  0  0  0  0  0  0  0  0  0  0  0
    2.7911    1.7705    0.4973 C   0  0  0  0  0  0  0  0  0  0  0  0
    4.0648   -0.4352    0.0772 C   0  0  0  0  0  0  0  0  0  0  0  0
    3.0932   -1.2906   -0.3817 C   0  0  0  0  0  0  0  0  0  0  0  0
    5.2420   -1.2072    0.0775 C   0  0  0  0  0  0  0  0  0  0  0  0
    3.1115   -3.6871   -1.1142 C   0  0  0  0  0  0  0  0  0  0  0  0
   -2.2869   -1.0114   -1.8039 H   0  0  0  0  0  0  0  0  0  0  0  0
   -4.0797    2.0874    0.2891 H   0  0  0  0  0  0  0  0  0  0  0  0
   -3.9961   -2.3566   -0.6944 H   0  0  0  0  0  0  0  0  0  0  0  0
   -3.3494    0.5870   -3.2052 H   0  0  0  0  0  0  0  0  0  0  0  0
   -1.7662    1.3684   -3.1303 H   0  0  0  0  0  0  0  0  0  0  0  0
   -2.7915    3.1452   -1.9392 H   0  0  0  0  0  0  0  0  0  0  0  0
   -4.3216    2.2717   -2.0725 H   0  0  0  0  0  0  0  0  0  0  0  0
   -0.5320   -0.4620   -0.1761 H   0  0  0  0  0  0  0  0  0  0  0  0
   -0.0870    0.2426   -1.7360 H   0  0  0  0  0  0  0  0  0  0  0  0
   -1.9170    1.9333    1.4377 H   0  0  0  0  0  0  0  0  0  0  0  0
   -1.9176    3.3122    0.3231 H   0  0  0  0  0  0  0  0  0  0  0  0
   -3.8138   -2.5982    2.4023 H   0  0  0  0  0  0  0  0  0  0  0  0
   -4.1369   -3.9369    1.2145 H   0  0  0  0  0  0  0  0  0  0  0  0
   -0.1426    4.1241    0.5971 H   0  0  0  0  0  0  0  0  0  0  0  0
    2.0958    4.8365    1.2917 H   0  0  0  0  0  0  0  0  0  0  0  0
    4.7456    1.3980    0.7781 H   0  0  0  0  0  0  0  0  0  0  0  0
    2.0336   -1.1773   -0.5605 H   0  0  0  0  0  0  0  0  0  0  0  0
    6.2405   -0.9136    0.3692 H   0  0  0  0  0  0  0  0  0  0  0  0
    3.5901   -3.9517   -2.0604 H   0  0  0  0  0  0  0  0  0  0  0  0
    3.2612   -4.4761   -0.3730 H   0  0  0  0  0  0  0  0  0  0  0  0
    2.0429   -3.5195   -1.2701 H   0  0  0  0  0  0  0  0  0  0  0  0
  1 18  1  0  0  0  0
  2 18  1  0  0  0  0
  3 20  2  0  0  0  0
  4 11  1  0  0  0  0
  4 12  1  0  0  0  0
  4 20  1  0  0  0  0
  5 16  1  0  0  0  0
  5 17  1  0  0  0  0
  5 21  1  0  0  0  0
  6 21  2  0  0  0  0
  6 24  1  0  0  0  0
  7 23  1  0  0  0  0
  7 24  2  0  0  0  0
  8 24  1  0  0  0  0
  8 25  1  0  0  0  0
  8 44  1  0  0  0  0
  9 10  1  0  0  0  0
  9 26  1  0  0  0  0
  9 28  1  0  0  0  0
 10 27  2  0  0  0  0
 11 14  1  0  0  0  0
 11 16  1  0  0  0  0
 11 29  1  0  0  0  0
 12 15  1  0  0  0  0
 12 17  1  0  0  0  0
 12 30  1  0  0  0  0
 13 18  1  0  0  0  0
 13 19  1  0  0  0  0
 13 20  1  0  0  0  0
 13 31  1  0  0  0  0
 14 15  1  0  0  0  0
 14 32  1  0  0  0  0
 14 33  1  0  0  0  0
 15 34  1  0  0  0  0
 15 35  1  0  0  0  0
 16 36  1  0  0  0  0
 16 37  1  0  0  0  0
 17 38  1  0  0  0  0
 17 39  1  0  0  0  0
 18 19  1  0  0  0  0
 19 40  1  0  0  0  0
 19 41  1  0  0  0  0
 21 22  1  0  0  0  0
 22 23  2  0  0  0  0
 22 42  1  0  0  0  0
 23 43  1  0  0  0  0
 25 26  2  0  0  0  0
 25 27  1  0  0  0  0
 26 45  1  0  0  0  0
 27 46  1  0  0  0  0
 28 47  1  0  0  0  0
 28 48  1  0  0  0  0
 28 49  1  0  0  0  0
M  END
> <PUBCHEM_COMPOUND_CID>
118878093

> <PUBCHEM_CONFORMER_RMSD>
1

> <PUBCHEM_CONFORMER_DIVERSEORDER>
1
58
6
110
109
107
42
86
102
15
108
51
103
16
77
45
70
38
43
30
20
22
97
59
40
87
5
23
98
44
28
99
75
64
60
21
115
101
106
10
55
14
80
63
24
34
50
7
56
92
113
95
25
83
39
36
116
90
94
8
41
85
2
65
57
46
19
18
104
27
100
82
32
72
35
71
78
96
11
54
31
114
13
81
12
91
67
62
33
69
37
52
61
26
74
3
79
66
48
47
73
111
112
89
49
88
4
53
93
17
68
84
29
76
9
105

> <PUBCHEM_MMFF94_PARTIAL_CHARGES>
34
1 -0.23
10 -0.71
11 0.3
12 0.3
13 -0.1
16 0.37
17 0.37
18 0.46
19 -0.2
2 -0.23
20 0.63
21 0.41
22 -0.15
23 0.16
24 0.72
25 0.08
26 -0.3
27 0.14
28 0.26
3 -0.57
31 0.1
4 -0.66
40 0.1
41 0.1
42 0.15
43 0.15
44 0.4
45 0.15
46 0.15
5 -0.84
6 -0.62
7 -0.62
8 -0.58
9 0.31

> <PUBCHEM_EFFECTIVE_ROTOR_COUNT>
6.8

> <PUBCHEM_PHARMACOPHORE_FEATURES>
7
1 10 acceptor
1 3 acceptor
1 8 donor
4 6 7 8 24 cation
5 9 10 25 26 27 rings
6 6 7 21 22 23 24 rings
8 4 5 11 12 14 15 16 17 rings

> <PUBCHEM_HEAVY_ATOM_COUNT>
28

> <PUBCHEM_ATOM_DEF_STEREO_COUNT>
3

> <PUBCHEM_ATOM_UDEF_STEREO_COUNT>
0

> <PUBCHEM_BOND_DEF_STEREO_COUNT>
0

> <PUBCHEM_BOND_UDEF_STEREO_COUNT>
0

> <PUBCHEM_ISOTOPIC_ATOM_COUNT>
0

> <PUBCHEM_COMPONENT_COUNT>
1

> <PUBCHEM_CACTVS_TAUTO_COUNT>
8

> <PUBCHEM_CONFORMER_ID>
0715EF8D00000001

> <PUBCHEM_MMFF94_ENERGY>
84.8321

> <PUBCHEM_FEATURE_SELFOVERLAP>
35.522

> <PUBCHEM_SHAPE_FINGERPRINT>
10675989 125 16965743963316118156
10764073 3 18268729259519441077
11370993 144 18339366361442916945
11552529 35 17698447963884197907
12422481 6 18191048848884934035
12553582 1 18271804567466325076
12623949 98 18122362429847786439
12633257 1 18270701821527760731
12788726 201 17908695134380782098
13402501 40 18408606963234595674
13533116 47 18199186377148845347
14251757 17 18408601431458760362
14659021 117 17690842264515136314
14725015 67 18187920746034509259
14866123 147 17549828780870011136
15322534 239 17546730348333564662
17974551 9 17989214724224769297
19315092 285 15838410611026911252
19930381 70 18340769359190312579
20693207 138 18334294301023399940
20764821 26 18410577258360252978
21315759 227 18335132094787621306
221490 88 18410854395562198712
23559900 14 18337102483611736137
3117164 225 18270981076159776345
3493558 16 14397613546586774771
4015057 19 18270662230556617277
4394409 98 16815146093389957938
4403749 210 17403997710331453776
508706 21 18186793678054329951
5309563 4 18342459240259530222
613672 6 18268977701649236810
6433294 58 18339365278942177570
6608658 132 14086825413659422311
7399639 24 17905881835938529952
9709674 26 18338505439021070364

> <PUBCHEM_SHAPE_MULTIPOLES>
520.94
9.81
5.18
1.47
7.11
0.9
0.58
5.96
-0.26
1.79
-1.05
-1.58
-0.08
3.46

> <PUBCHEM_SHAPE_SELFOVERLAP>
1134.2

> <PUBCHEM_SHAPE_VOLUME>
284.9

> <PUBCHEM_COORDINATE_TYPE>
2
5
10

$$$$
25171648
  -OEChem-11282412143D

 65 69  0     0  0  0  0  0  0999 V2000
   -3.9650   -1.6544    0.2960 O   0  0  0  0  0  0  0  0  0  0  0  0
    6.9332   -0.9557   -0.5356 O   0  0  0  0  0  0  0  0  0  0  0  0
   -8.3409    0.8246   -0.7539 N   0  0  0  0  0  0  0  0  0  0  0  0
   -0.3284   -1.2626    0.1452 N   0  0  0  0  0  0  0  0  0  0  0  0
   -0.8736   -3.6099    0.1517 N   0  0  0  0  0  0  0  0  0  0  0  0
    4.9155   -0.2523    0.3769 N   0  0  0  0  0  0  0  0  0  0  0  0
    3.9463    0.7037    0.4875 N   0  0  0  0  0  0  0  0  0  0  0  0
   -1.7096    2.8202    0.8454 N   0  0  0  0  0  0  0  0  0  0  0  0
   -5.8252   -0.1583    0.3865 C   0  0  0  0  0  0  0  0  0  0  0  0
   -6.4846   -0.8091   -0.8342 C   0  0  0  0  0  0  0  0  0  0  0  0
   -6.2562    1.3089    0.4870 C   0  0  0  0  0  0  0  0  0  0  0  0
   -8.0007   -0.6028   -0.8241 C   0  0  0  0  0  0  0  0  0  0  0  0
   -7.7798    1.4447    0.4539 C   0  0  0  0  0  0  0  0  0  0  0  0
   -4.3055   -0.2805    0.3194 C   0  0  0  0  0  0  0  0  0  0  0  0
   -9.7916    1.0077   -0.7968 C   0  0  0  0  0  0  0  0  0  0  0  0
   -2.6287   -1.9649    0.2378 C   0  0  0  0  0  0  0  0  0  0  0  0
   -1.6492   -0.9935    0.2031 C   0  0  0  0  0  0  0  0  0  0  0  0
   -2.1777   -3.2688    0.2094 C   0  0  0  0  0  0  0  0  0  0  0  0
   -0.0157   -2.5723    0.1226 C   0  0  0  0  0  0  0  0  0  0  0  0
    1.3852   -2.8978    0.0610 C   0  0  0  0  0  0  0  0  0  0  0  0
    3.6836   -2.3566    0.5718 C   0  0  0  0  0  0  0  0  0  0  0  0
    4.6909   -1.4409    1.1818 C   0  0  0  0  0  0  0  0  0  0  0  0
    2.3263   -2.0408    0.6316 C   0  0  0  0  0  0  0  0  0  0  0  0
    1.8015   -4.0703   -0.5697 C   0  0  0  0  0  0  0  0  0  0  0  0
    4.0999   -3.5291   -0.0587 C   0  0  0  0  0  0  0  0  0  0  0  0
    3.1589   -4.3860   -0.6295 C   0  0  0  0  0  0  0  0  0  0  0  0
    4.0815    1.7952   -0.1960 C   0  0  0  0  0  0  0  0  0  0  0  0
    6.0384   -0.1180   -0.4257 C   0  0  0  0  0  0  0  0  0  0  0  0
    3.0360    2.8464   -0.0810 C   0  0  0  0  0  0  0  0  0  0  0  0
    5.2054    2.0731   -1.1113 C   0  0  0  0  0  0  0  0  0  0  0  0
    6.1430    1.1333   -1.2055 C   0  0  0  0  0  0  0  0  0  0  0  0
    1.7179    2.4915    0.2058 C   0  0  0  0  0  0  0  0  0  0  0  0
    3.3740    4.1880   -0.2592 C   0  0  0  0  0  0  0  0  0  0  0  0
    0.7379    3.4780    0.3141 C   0  0  0  0  0  0  0  0  0  0  0  0
    2.3940    5.1746   -0.1506 C   0  0  0  0  0  0  0  0  0  0  0  0
    1.0759    4.8196    0.1361 C   0  0  0  0  0  0  0  0  0  0  0  0
   -0.6127    3.1150    0.6073 C   0  0  0  0  0  0  0  0  0  0  0  0
   -6.1771   -0.6939    1.2792 H   0  0  0  0  0  0  0  0  0  0  0  0
   -6.0670   -0.3860   -1.7574 H   0  0  0  0  0  0  0  0  0  0  0  0
   -6.2747   -1.8850   -0.8554 H   0  0  0  0  0  0  0  0  0  0  0  0
   -5.8216    1.8858   -0.3401 H   0  0  0  0  0  0  0  0  0  0  0  0
   -5.8731    1.7480    1.4159 H   0  0  0  0  0  0  0  0  0  0  0  0
   -8.4096   -1.0364   -1.7449 H   0  0  0  0  0  0  0  0  0  0  0  0
   -8.4415   -1.1523    0.0182 H   0  0  0  0  0  0  0  0  0  0  0  0
   -8.0269    2.5132    0.4712 H   0  0  0  0  0  0  0  0  0  0  0  0
   -8.2091    0.9964    1.3597 H   0  0  0  0  0  0  0  0  0  0  0  0
   -3.8778    0.2000    1.2085 H   0  0  0  0  0  0  0  0  0  0  0  0
   -3.9424    0.2220   -0.5865 H   0  0  0  0  0  0  0  0  0  0  0  0
  -10.2051    0.5894   -1.7212 H   0  0  0  0  0  0  0  0  0  0  0  0
  -10.2945    0.5317    0.0527 H   0  0  0  0  0  0  0  0  0  0  0  0
  -10.0451    2.0736   -0.7948 H   0  0  0  0  0  0  0  0  0  0  0  0
   -1.8549    0.0685    0.2152 H   0  0  0  0  0  0  0  0  0  0  0  0
   -2.8706   -4.1036    0.2326 H   0  0  0  0  0  0  0  0  0  0  0  0
    4.3618   -1.1282    2.1814 H   0  0  0  0  0  0  0  0  0  0  0  0
    5.6428   -1.9646    1.3312 H   0  0  0  0  0  0  0  0  0  0  0  0
    2.0143   -1.1349    1.1462 H   0  0  0  0  0  0  0  0  0  0  0  0
    1.0942   -4.7538   -1.0331 H   0  0  0  0  0  0  0  0  0  0  0  0
    5.1542   -3.7864   -0.1155 H   0  0  0  0  0  0  0  0  0  0  0  0
    3.4835   -5.2974   -1.1230 H   0  0  0  0  0  0  0  0  0  0  0  0
    5.2633    2.9694   -1.7131 H   0  0  0  0  0  0  0  0  0  0  0  0
    6.9945    1.2534   -1.8652 H   0  0  0  0  0  0  0  0  0  0  0  0
    1.4439    1.4470    0.3387 H   0  0  0  0  0  0  0  0  0  0  0  0
    4.3931    4.5116   -0.4482 H   0  0  0  0  0  0  0  0  0  0  0  0
    2.6582    6.2200   -0.2812 H   0  0  0  0  0  0  0  0  0  0  0  0
    0.3235    5.6002    0.2193 H   0  0  0  0  0  0  0  0  0  0  0  0
  1 14  1  0  0  0  0
  1 16  1  0  0  0  0
  2 28  2  0  0  0  0
  3 12  1  0  0  0  0
  3 13  1  0  0  0  0
  3 15  1  0  0  0  0
  4 17  2  0  0  0  0
  4 19  1  0  0  0  0
  5 18  1  0  0  0  0
  5 19  2  0  0  0  0
  6  7  1  0  0  0  0
  6 22  1  0  0  0  0
  6 28  1  0  0  0  0
  7 27  2  0  0  0  0
  8 37  3  0  0  0  0
  9 10  1  0  0  0  0
  9 11  1  0  0  0  0
  9 14  1  0  0  0  0
  9 38  1  0  0  0  0
 10 12  1  0  0  0  0
 10 39  1  0  0  0  0
 10 40  1  0  0  0  0
 11 13  1  0  0  0  0
 11 41  1  0  0  0  0
 11 42  1  0  0  0  0
 12 43  1  0  0  0  0
 12 44  1  0  0  0  0
 13 45  1  0  0  0  0
 13 46  1  0  0  0  0
 14 47  1  0  0  0  0
 14 48  1  0  0  0  0
 15 49  1  0  0  0  0
 15 50  1  0  0  0  0
 15 51  1  0  0  0  0
 16 17  1  0  0  0  0
 16 18  2  0  0  0  0
 17 52  1  0  0  0  0
 18 53  1  0  0  0  0
 19 20  1  0  0  0  0
 20 23  1  0  0  0  0
 20 24  2  0  0  0  0
 21 22  1  0  0  0  0
 21 23  2  0  0  0  0
 21 25  1  0  0  0  0
 22 54  1  0  0  0  0
 22 55  1  0  0  0  0
 23 56  1  0  0  0  0
 24 26  1  0  0  0  0
 24 57  1  0  0  0  0
 25 26  2  0  0  0  0
 25 58  1  0  0  0  0
 26 59  1  0  0  0  0
 27 29  1  0  0  0  0
 27 30  1  0  0  0  0
 28 31  1  0  0  0  0
 29 32  1  0  0  0  0
 29 33  2  0  0  0  0
 30 31  2  0  0  0  0
 30 60  1  0  0  0  0
 31 61  1  0  0  0  0
 32 34  2  0  0  0  0
 32 62  1  0  0  0  0
 33 35  1  0  0  0  0
 33 63  1  0  0  0  0
 34 36  1  0  0  0  0
 34 37  1  0  0  0  0
 35 36  2  0  0  0  0
 35 64  1  0  0  0  0
 36 65  1  0  0  0  0
M  END
> <PUBCHEM_COMPOUND_CID>
25171648

> <PUBCHEM_CONFORMER_RMSD>
1.2

> <PUBCHEM_CONFORMER_DIVERSEORDER>
1
129
154
80
72
115
140
103
15
116
161
98
19
126
132
167
118
128
94
23
27
159
89
17
75
83
9
68
54
30
63
101
5
66
106
53
152
10
13
158
48
88
97
61
40
86
124
3
46
74
34
136
81
24
122
113
112
102
6
107
110
73
43
105
157
51
160
31
139
119
57
121
65
49
64
130
85
18
163
99
87
38
25
143
29
104
117
32
125
11
90
4
77
135
96
55
56
109
20
100
14
21
151
155
156
114
7
47
16
69
22
82
71
79
146
127
36
39
8
164
138
67
60
166
134
70
141
153
41
148
44
137
12
58
84
26
52
42
91
50
111
131
145
108
35
37
162
133
92
144
120
2
59
45
165
78
123
95
150
33
93
28
147
149
76
142
62

> <PUBCHEM_MMFF94_PARTIAL_CHARGES>
45
1 -0.36
12 0.27
13 0.27
14 0.28
15 0.27
16 0.08
17 0.16
18 0.16
19 0.62
2 -0.57
21 -0.14
22 0.44
23 -0.15
24 -0.15
25 -0.15
26 -0.15
27 0.35
28 0.62
29 0.09
3 -0.81
30 -0.14
31 -0.14
32 -0.15
33 -0.15
34 0.07
35 -0.15
36 -0.15
37 0.48
4 -0.62
5 -0.62
52 0.15
53 0.15
56 0.15
57 0.15
58 0.15
59 0.15
6 -0.3
60 0.15
61 0.15
62 0.15
63 0.15
64 0.15
65 0.15
7 -0.51
8 -0.56

> <PUBCHEM_EFFECTIVE_ROTOR_COUNT>
8.2

> <PUBCHEM_PHARMACOPHORE_FEATURES>
12
1 1 acceptor
1 2 acceptor
1 3 cation
1 4 acceptor
1 7 acceptor
1 8 acceptor
3 4 5 19 cation
6 20 21 23 24 25 26 rings
6 29 32 33 34 35 36 rings
6 3 9 10 11 12 13 rings
6 4 5 16 17 18 19 rings
6 6 7 27 28 30 31 rings

> <PUBCHEM_HEAVY_ATOM_COUNT>
37

> <PUBCHEM_ATOM_DEF_STEREO_COUNT>
0

> <PUBCHEM_ATOM_UDEF_STEREO_COUNT>
0

> <PUBCHEM_BOND_DEF_STEREO_COUNT>
0

> <PUBCHEM_BOND_UDEF_STEREO_COUNT>
0

> <PUBCHEM_ISOTOPIC_ATOM_COUNT>
0

> <PUBCHEM_COMPONENT_COUNT>
1

> <PUBCHEM_CACTVS_TAUTO_COUNT>
1

> <PUBCHEM_CONFORMER_ID>
018016C000000001

> <PUBCHEM_MMFF94_ENERGY>
101.8791

> <PUBCHEM_FEATURE_SELFOVERLAP>
60.901

> <PUBCHEM_SHAPE_FINGERPRINT>
10483366 6 18411422821208512912
10675989 125 18337668732369150720
10816530 90 18333722525096658785
10864689 126 18194975260811049972
11273773 38 18409731802589893088
12173638 148 18119528980911612979
12925494 130 18337390564574955667
1361 2 18410576175590307296
13944108 23 18334580165868247836
14040222 275 18125742105063548854
14117953 113 18412548695873026982
14400156 260 18260828220686577672
14400156 413 18048865317965568567
14747282 540 18259988188970303228
14849402 71 18410295809632945801
15001296 14 18263075690181691944
15183329 4 18410856577521746745
15264996 151 18116148874653197137
15274700 259 17750217155382891253
15320295 198 18260832605483884453
15320467 1 18410859858475678208
15351339 4 18335984160100647872
15400415 2 17906736156822199105
15439362 3 18050850215511267752
15483637 11 17905044755312926572
15781502 409 17895479253939530419
15890870 6 18335143107321314238
16067689 134 18196950876721049233
16067689 302 18339082722515150551
16087824 20 18409449194338240148
16664035 1 18413387656961998968
20580484 21 18410572869473817525
21133410 38 18057908890512252354
21585483 110 18335985371513488021
21781055 127 16630540501818262411
24771750 20 18118975925570357157
255183 451 17984709905207033830
4066623 53 18126582132754057742
4760202 170 18338220563496125501
5109719 28 18335710442568558219
57676310 18 18268146453785024417
58902169 19 18130495393047020343
99344 41 18339918350254780753
9961470 85 18126839628147483552

> <PUBCHEM_SHAPE_MULTIPOLES>
719.82
21.24
7.16
0.91
52.12
3.07
0.07
4.49
5.78
-9.13
0.07
-0.11
0.03
-0.79

> <PUBCHEM_SHAPE_SELFOVERLAP>
1563.765

> <PUBCHEM_SHAPE_VOLUME>
386.9

> <PUBCHEM_COORDINATE_TYPE>
2
5
10

$$$$
25062766
  -OEChem-11282412143D

 53 56  0     0  0  0  0  0  0999 V2000
    6.4073   -4.1559   -0.1518 O   0  0  0  0  0  0  0  0  0  0  0  0
   -4.4602   -2.9184    0.4234 O   0  0  0  0  0  0  0  0  0  0  0  0
    5.1609   -1.6425    0.0181 N   0  0  0  0  0  0  0  0  0  0  0  0
    2.2358    3.1303    0.1147 N   0  0  0  0  0  0  0  0  0  0  0  0
    0.0316    2.3373    0.0535 N   0  0  0  0  0  0  0  0  0  0  0  0
    0.4964    4.7005    0.1334 N   0  0  0  0  0  0  0  0  0  0  0  0
   -5.9725   -1.6996   -0.8430 N   0  0  0  0  0  0  0  0  0  0  0  0
   -8.6903   -2.6149    1.0146 N   0  0  0  0  0  0  0  0  0  0  0  0
    5.5437   -2.1950   -1.2885 C   0  0  0  0  0  0  0  0  0  0  0  0
    4.9821   -2.6320    1.0863 C   0  0  0  0  0  0  0  0  0  0  0  0
    6.7175   -3.1527   -1.1187 C   0  0  0  0  0  0  0  0  0  0  0  0
    6.1856   -3.5671    1.1292 C   0  0  0  0  0  0  0  0  0  0  0  0
    4.4302   -0.4502    0.0424 C   0  0  0  0  0  0  0  0  0  0  0  0
    4.9673    0.7085   -0.5187 C   0  0  0  0  0  0  0  0  0  0  0  0
    3.1644   -0.4197    0.6274 C   0  0  0  0  0  0  0  0  0  0  0  0
    2.9727    1.9279    0.0904 C   0  0  0  0  0  0  0  0  0  0  0  0
    4.2387    1.8975   -0.4947 C   0  0  0  0  0  0  0  0  0  0  0  0
    2.4356    0.7693    0.6515 C   0  0  0  0  0  0  0  0  0  0  0  0
    0.8540    3.4026    0.1000 C   0  0  0  0  0  0  0  0  0  0  0  0
   -2.1693    1.4952   -0.0083 C   0  0  0  0  0  0  0  0  0  0  0  0
   -1.2844    2.6344    0.0403 C   0  0  0  0  0  0  0  0  0  0  0  0
   -3.0577    1.3458   -1.0733 C   0  0  0  0  0  0  0  0  0  0  0  0
   -2.1346    0.5424    1.0098 C   0  0  0  0  0  0  0  0  0  0  0  0
   -3.8768   -0.7089   -0.1018 C   0  0  0  0  0  0  0  0  0  0  0  0
   -1.7802    3.9218    0.0715 C   0  0  0  0  0  0  0  0  0  0  0  0
   -3.9115    0.2438   -1.1201 C   0  0  0  0  0  0  0  0  0  0  0  0
   -2.9885   -0.5596    0.9631 C   0  0  0  0  0  0  0  0  0  0  0  0
   -0.8339    4.9250    0.1179 C   0  0  0  0  0  0  0  0  0  0  0  0
   -4.7667   -1.8581   -0.1500 C   0  0  0  0  0  0  0  0  0  0  0  0
   -6.9696   -2.7393   -0.9600 C   0  0  0  0  0  0  0  0  0  0  0  0
   -7.9277   -2.6685    0.1417 C   0  0  0  0  0  0  0  0  0  0  0  0
    5.8272   -1.4142   -2.0025 H   0  0  0  0  0  0  0  0  0  0  0  0
    4.6827   -2.7331   -1.7041 H   0  0  0  0  0  0  0  0  0  0  0  0
    4.0764   -3.2182    0.8870 H   0  0  0  0  0  0  0  0  0  0  0  0
    4.8795   -2.1480    2.0646 H   0  0  0  0  0  0  0  0  0  0  0  0
    6.9299   -3.6550   -2.0678 H   0  0  0  0  0  0  0  0  0  0  0  0
    7.6266   -2.6205   -0.8135 H   0  0  0  0  0  0  0  0  0  0  0  0
    7.0916   -3.0375    1.4483 H   0  0  0  0  0  0  0  0  0  0  0  0
    6.0051   -4.3755    1.8448 H   0  0  0  0  0  0  0  0  0  0  0  0
    5.9573    0.7080   -0.9674 H   0  0  0  0  0  0  0  0  0  0  0  0
    2.7137   -1.3038    1.0694 H   0  0  0  0  0  0  0  0  0  0  0  0
    4.6691    2.7942   -0.9334 H   0  0  0  0  0  0  0  0  0  0  0  0
    1.4736    0.7564    1.1529 H   0  0  0  0  0  0  0  0  0  0  0  0
    2.7997    3.9688    0.0129 H   0  0  0  0  0  0  0  0  0  0  0  0
   -3.0915    2.0708   -1.8834 H   0  0  0  0  0  0  0  0  0  0  0  0
   -1.4514    0.6436    1.8499 H   0  0  0  0  0  0  0  0  0  0  0  0
   -2.8388    4.1506    0.0656 H   0  0  0  0  0  0  0  0  0  0  0  0
   -4.5641    0.1498   -1.9830 H   0  0  0  0  0  0  0  0  0  0  0  0
   -2.9492   -1.2880    1.7690 H   0  0  0  0  0  0  0  0  0  0  0  0
   -1.1281    5.9687    0.1462 H   0  0  0  0  0  0  0  0  0  0  0  0
   -6.2190   -0.7958   -1.2326 H   0  0  0  0  0  0  0  0  0  0  0  0
   -6.4733   -3.7148   -0.9757 H   0  0  0  0  0  0  0  0  0  0  0  0
   -7.4749   -2.5979   -1.9203 H   0  0  0  0  0  0  0  0  0  0  0  0
  1 11  1  0  0  0  0
  1 12  1  0  0  0  0
  2 29  2  0  0  0  0
  3  9  1  0  0  0  0
  3 10  1  0  0  0  0
  3 13  1  0  0  0  0
  4 16  1  0  0  0  0
  4 19  1  0  0  0  0
  4 44  1  0  0  0  0
  5 19  1  0  0  0  0
  5 21  2  0  0  0  0
  6 19  2  0  0  0  0
  6 28  1  0  0  0  0
  7 29  1  0  0  0  0
  7 30  1  0  0  0  0
  7 51  1  0  0  0  0
  8 31  3  0  0  0  0
  9 11  1  0  0  0  0
  9 32  1  0  0  0  0
  9 33  1  0  0  0  0
 10 12  1  0  0  0  0
 10 34  1  0  0  0  0
 10 35  1  0  0  0  0
 11 36  1  0  0  0  0
 11 37  1  0  0  0  0
 12 38  1  0  0  0  0
 12 39  1  0  0  0  0
 13 14  2  0  0  0  0
 13 15  1  0  0  0  0
 14 17  1  0  0  0  0
 14 40  1  0  0  0  0
 15 18  2  0  0  0  0
 15 41  1  0  0  0  0
 16 17  2  0  0  0  0
 16 18  1  0  0  0  0
 17 42  1  0  0  0  0
 18 43  1  0  0  0  0
 20 21  1  0  0  0  0
 20 22  2  0  0  0  0
 20 23  1  0  0  0  0
 21 25  1  0  0  0  0
 22 26  1  0  0  0  0
 22 45  1  0  0  0  0
 23 27  2  0  0  0  0
 23 46  1  0  0  0  0
 24 26  2  0  0  0  0
 24 27  1  0  0  0  0
 24 29  1  0  0  0  0
 25 28  2  0  0  0  0
 25 47  1  0  0  0  0
 26 48  1  0  0  0  0
 27 49  1  0  0  0  0
 28 50  1  0  0  0  0
 30 31  1  0  0  0  0
 30 52  1  0  0  0  0
 30 53  1  0  0  0  0
M  END
> <PUBCHEM_COMPOUND_CID>
25062766

> <PUBCHEM_CONFORMER_RMSD>
1

> <PUBCHEM_CONFORMER_DIVERSEORDER>
1
29
8
19
26
10
9
27
20
21
30
23
5
16
31
22
14
25
18
32
4
28
12
17
15
7
11
24
3
13
6
2

> <PUBCHEM_MMFF94_PARTIAL_CHARGES>
42
1 -0.56
10 0.37
11 0.28
12 0.28
13 0.1
14 -0.15
15 -0.15
16 0.1
17 -0.15
18 -0.15
19 0.72
2 -0.57
21 0.31
22 -0.15
23 -0.15
24 0.09
25 -0.15
26 -0.15
27 -0.15
28 0.16
29 0.54
3 -0.84
30 0.5
31 0.36
4 -0.6
40 0.15
41 0.15
42 0.15
43 0.15
44 0.4
45 0.15
46 0.15
47 0.15
48 0.15
49 0.15
5 -0.62
50 0.15
51 0.37
6 -0.62
7 -0.73
8 -0.56
9 0.37

> <PUBCHEM_EFFECTIVE_ROTOR_COUNT>
8.2

> <PUBCHEM_PHARMACOPHORE_FEATURES>
12
1 1 acceptor
1 2 acceptor
1 3 cation
1 4 donor
1 5 acceptor
1 7 donor
1 8 acceptor
4 4 5 6 19 cation
6 1 3 9 10 11 12 rings
6 13 14 15 16 17 18 rings
6 20 22 23 24 26 27 rings
6 5 6 19 21 25 28 rings

> <PUBCHEM_HEAVY_ATOM_COUNT>
31

> <PUBCHEM_ATOM_DEF_STEREO_COUNT>
0

> <PUBCHEM_ATOM_UDEF_STEREO_COUNT>
0

> <PUBCHEM_BOND_DEF_STEREO_COUNT>
0

> <PUBCHEM_BOND_UDEF_STEREO_COUNT>
0

> <PUBCHEM_ISOTOPIC_ATOM_COUNT>
0

> <PUBCHEM_COMPONENT_COUNT>
1

> <PUBCHEM_CACTVS_TAUTO_COUNT>
6

> <PUBCHEM_CONFORMER_ID>
017E6D6E00000001

> <PUBCHEM_MMFF94_ENERGY>
108.3676

> <PUBCHEM_FEATURE_SELFOVERLAP>
60.897

> <PUBCHEM_SHAPE_FINGERPRINT>
10258705 36 17899705841452711603
10319688 140 18265334095702700356
10622 236 18343014506268168997
10693767 8 18268698588847055927
10940486 97 17901395494212857348
11409948 35 18338794629009693663
11409948 41 17982994938125072223
117089 54 18340211804048637622
12107183 9 18270695233670973313
12124843 1 17967818198121068254
12166972 35 18113338608773834751
12655387 17 18340785749856230389
13248334 5 18051131698814363737
1361 4 18267869381392365766
1361 87 17749401407021401931
13785724 45 18340209682634830405
13911852 28 18411980299589870405
13989917 61 18050005798828094523
14040222 275 18267325220981964998
14347332 77 18338234869187792378
14866123 147 18196653999928207793
15152005 290 9151165454891749178
15250474 111 17900540078397546106
15400415 2 17113534274051972221
15803439 3 16741120382065443556
17138139 8 17969786268611480258
17492 89 18411135801951437844
17909252 39 18339643442700057224
19301679 30 18342745096102610103
19311894 1 18121500142380422048
19319366 153 18049445035408640612
20775438 99 17906714144655435947
208703 8 18411412878665554558
21130935 74 18124879225808731171
21133410 171 17540481999936958435
21133410 58 18196079157400358783
21307412 95 18266733585184450301
21585482 57 9151177511656214203
23523788 1 18053911131306976426
23559900 14 18267574707812739088
23569914 152 17980723183876700279
23569914 2 12964909364268583947
23569943 247 18409727388092462035
255183 451 18412831300030296366
2748736 6 9007051340626516494
2835820 82 18339359798991805975
3383291 50 17908706124812716073
3991529 202 18192454029330739515
4017518 198 17255679695124724220
404807 14 18410295813790568427
44062 13 18123471579772363424
46194498 28 17387964516132496981
484985 159 18193272984002109061
508706 21 17983578507577417654
5219985 13 8934999278300445281
5309563 4 18412262830806509679
58260988 647 18335706100524848835
6058803 2 18266197062582305204
70251023 43 18337109067912879705
7970288 3 18411979195514081110
9831232 110 18119526789807541263
9849439 229 9367344838343685400
9980921 52 17700952574416926031

> <PUBCHEM_SHAPE_MULTIPOLES>
596.34
20.48
6.83
1.06
13.95
3.88
0.06
-36.8
1.45
-1.77
-0.31
-0.2
-0.64
0.15

> <PUBCHEM_SHAPE_SELFOVERLAP>
1289.466

> <PUBCHEM_SHAPE_VOLUME>
322

> <PUBCHEM_COORDINATE_TYPE>
2
5
10

$$$$
129269915
  -OEChem-11282412143D

 55 57  0     1  0  0  0  0  0999 V2000
   -6.2322   -1.9745    1.0440 F   0  0  0  0  0  0  0  0  0  0  0  0
   -4.3250   -3.0231    1.0499 F   0  0  0  0  0  0  0  0  0  0  0  0
   -6.0295   -3.8805   -0.0028 F   0  0  0  0  0  0  0  0  0  0  0  0
    6.2549   -3.8749    0.6958 F   0  0  0  0  0  0  0  0  0  0  0  0
   -5.2306    3.3222    0.1616 O   0  0  0  0  0  0  0  0  0  0  0  0
    5.8733    1.3305   -1.0129 O   0  0  0  0  0  0  0  0  0  0  0  0
    3.7536    0.2670    2.2012 O   0  0  0  0  0  0  0  0  0  0  0  0
   -4.3361   -0.7120   -0.6400 N   0  0  0  0  0  0  0  0  0  0  0  0
   -2.9992   -0.6731   -0.5078 N   0  0  0  0  0  0  0  0  0  0  0  0
   -6.2847    0.6306   -0.5324 N   0  0  0  0  0  0  0  0  0  0  0  0
    3.5735    1.4522    0.2156 N   0  0  0  0  0  0  0  0  0  0  0  0
   -2.9607    3.5417    0.4022 N   0  0  0  0  0  0  0  0  0  0  0  0
   -4.9701   -1.9685   -0.9698 C   0  0  2  0  0  0  0  0  0  0  0  0
   -4.9452    0.4916   -0.4379 C   0  0  0  0  0  0  0  0  0  0  0  0
   -2.7611    0.6072   -0.2106 C   0  0  0  0  0  0  0  0  0  0  0  0
   -3.9366    1.3795   -0.1532 C   0  0  0  0  0  0  0  0  0  0  0  0
   -1.4160    1.0577    0.0110 C   0  0  0  0  0  0  0  0  0  0  0  0
   -5.3999   -2.7218    0.2847 C   0  0  0  0  0  0  0  0  0  0  0  0
   -4.0854   -2.8407   -1.8653 C   0  0  0  0  0  0  0  0  0  0  0  0
   -0.6535    1.5308   -1.0570 C   0  0  0  0  0  0  0  0  0  0  0  0
   -0.8720    1.0233    1.2950 C   0  0  0  0  0  0  0  0  0  0  0  0
    1.1966    1.9352    0.4430 C   0  0  0  0  0  0  0  0  0  0  0  0
   -4.1022    2.7749    0.1316 C   0  0  0  0  0  0  0  0  0  0  0  0
    0.6528    1.9696   -0.8410 C   0  0  0  0  0  0  0  0  0  0  0  0
    0.4343    1.4621    1.5110 C   0  0  0  0  0  0  0  0  0  0  0  0
    2.5934    2.4039    0.6741 C   0  0  0  0  0  0  0  0  0  0  0  0
    4.0787    0.4485    1.0307 C   0  0  0  0  0  0  0  0  0  0  0  0
    5.1025   -0.4354    0.4163 C   0  0  0  0  0  0  0  0  0  0  0  0
    5.9561    0.0414   -0.5786 C   0  0  0  0  0  0  0  0  0  0  0  0
    5.2033   -1.7583    0.8469 C   0  0  0  0  0  0  0  0  0  0  0  0
    6.9108   -0.8048   -1.1427 C   0  0  0  0  0  0  0  0  0  0  0  0
    6.1580   -2.6044    0.2825 C   0  0  0  0  0  0  0  0  0  0  0  0
    7.0118   -2.1277   -0.7122 C   0  0  0  0  0  0  0  0  0  0  0  0
    6.7864    1.7298   -2.0330 C   0  0  0  0  0  0  0  0  0  0  0  0
   -5.8645   -1.7369   -1.5592 H   0  0  0  0  0  0  0  0  0  0  0  0
   -3.1874   -3.1886   -1.3424 H   0  0  0  0  0  0  0  0  0  0  0  0
   -4.6353   -3.7276   -2.1986 H   0  0  0  0  0  0  0  0  0  0  0  0
   -3.7660   -2.2929   -2.7590 H   0  0  0  0  0  0  0  0  0  0  0  0
   -1.0629    1.5646   -2.0639 H   0  0  0  0  0  0  0  0  0  0  0  0
   -1.4531    0.6577    2.1384 H   0  0  0  0  0  0  0  0  0  0  0  0
    1.2371    2.3362   -1.6809 H   0  0  0  0  0  0  0  0  0  0  0  0
    0.8454    1.4283    2.5165 H   0  0  0  0  0  0  0  0  0  0  0  0
   -6.7358    1.5286   -0.3865 H   0  0  0  0  0  0  0  0  0  0  0  0
   -6.9167   -0.1387   -0.7262 H   0  0  0  0  0  0  0  0  0  0  0  0
    2.7667    2.6158    1.7359 H   0  0  0  0  0  0  0  0  0  0  0  0
    2.7682    3.3421    0.1347 H   0  0  0  0  0  0  0  0  0  0  0  0
    3.8658    1.5155   -0.7547 H   0  0  0  0  0  0  0  0  0  0  0  0
   -2.0070    3.2167    0.4118 H   0  0  0  0  0  0  0  0  0  0  0  0
   -3.0707    4.5292    0.6115 H   0  0  0  0  0  0  0  0  0  0  0  0
    4.5446   -2.1505    1.6172 H   0  0  0  0  0  0  0  0  0  0  0  0
    7.6074   -0.5065   -1.9184 H   0  0  0  0  0  0  0  0  0  0  0  0
    7.7545   -2.7878   -1.1505 H   0  0  0  0  0  0  0  0  0  0  0  0
    6.5789    2.7817   -2.2558 H   0  0  0  0  0  0  0  0  0  0  0  0
    6.6243    1.1717   -2.9615 H   0  0  0  0  0  0  0  0  0  0  0  0
    7.8250    1.6778   -1.6891 H   0  0  0  0  0  0  0  0  0  0  0  0
  1 18  1  0  0  0  0
  2 18  1  0  0  0  0
  3 18  1  0  0  0  0
  4 32  1  0  0  0  0
  5 23  2  0  0  0  0
  6 29  1  0  0  0  0
  6 34  1  0  0  0  0
  7 27  2  0  0  0  0
  8  9  1  0  0  0  0
  8 13  1  0  0  0  0
  8 14  1  0  0  0  0
  9 15  2  0  0  0  0
 10 14  1  0  0  0  0
 10 43  1  0  0  0  0
 10 44  1  0  0  0  0
 11 26  1  0  0  0  0
 11 27  1  0  0  0  0
 11 47  1  0  0  0  0
 12 23  1  0  0  0  0
 12 48  1  0  0  0  0
 12 49  1  0  0  0  0
 13 18  1  0  0  0  0
 13 19  1  0  0  0  0
 13 35  1  0  0  0  0
 14 16  2  0  0  0  0
 15 16  1  0  0  0  0
 15 17  1  0  0  0  0
 16 23  1  0  0  0  0
 17 20  2  0  0  0  0
 17 21  1  0  0  0  0
 19 36  1  0  0  0  0
 19 37  1  0  0  0  0
 19 38  1  0  0  0  0
 20 24  1  0  0  0  0
 20 39  1  0  0  0  0
 21 25  2  0  0  0  0
 21 40  1  0  0  0  0
 22 24  2  0  0  0  0
 22 25  1  0  0  0  0
 22 26  1  0  0  0  0
 24 41  1  0  0  0  0
 25 42  1  0  0  0  0
 26 45  1  0  0  0  0
 26 46  1  0  0  0  0
 27 28  1  0  0  0  0
 28 29  2  0  0  0  0
 28 30  1  0  0  0  0
 29 31  1  0  0  0  0
 30 32  2  0  0  0  0
 30 50  1  0  0  0  0
 31 33  2  0  0  0  0
 31 51  1  0  0  0  0
 32 33  1  0  0  0  0
 33 52  1  0  0  0  0
 34 53  1  0  0  0  0
 34 54  1  0  0  0  0
 34 55  1  0  0  0  0
M  END
> <PUBCHEM_COMPOUND_CID>
129269915

> <PUBCHEM_CONFORMER_RMSD>
1

> <PUBCHEM_CONFORMER_DIVERSEORDER>
6
46
149
142
74
137
145
22
160
7
167
82
103
165
53
76
69
54
39
44
65
23
107
115
58
169
155
147
100
16
153
96
87
70
48
60
94
152
144
134
164
86
114
85
43
9
99
92
51
136
47
128
163
143
129
110
81
26
83
125
135
168
49
148
121
37
126
31
162
55
61
41
138
116
105
151
154
30
119
67
117
45
127
27
91
161
72
59
4
95
64
28
15
156
35
93
108
36
150
124
101
120
166
102
42
131
5
20
78
157
104
89
2
50
80
66
10
13
159
106
38
88
52
56
98
1
133
21
62
113
12
25
141
18
68
122
8
111
79
11
33
32
71
29
63
90
146
75
24
132
84
14
112
140
97
40
130
109
17
123
3
77
139
34
73
57
118
19
158

> <PUBCHEM_MMFF94_PARTIAL_CHARGES>
45
1 -0.34
10 -0.88
11 -0.73
12 -0.8
13 0.26
14 -0.07
15 0.23
16 -0.09
17 0.05
18 1.02
2 -0.34
20 -0.15
21 -0.15
22 -0.14
23 0.72
24 -0.15
25 -0.15
26 0.44
27 0.54
28 0.09
29 0.08
3 -0.34
30 -0.15
31 -0.15
32 0.19
33 -0.15
34 0.28
39 0.15
4 -0.19
40 0.15
41 0.15
42 0.15
43 0.4
44 0.4
47 0.37
48 0.37
49 0.37
5 -0.57
50 0.15
51 0.15
52 0.15
6 -0.36
7 -0.57
8 0.31
9 -0.71

> <PUBCHEM_EFFECTIVE_ROTOR_COUNT>
9

> <PUBCHEM_PHARMACOPHORE_FEATURES>
11
1 10 cation
1 10 donor
1 11 donor
1 12 donor
1 5 acceptor
1 6 acceptor
1 7 acceptor
1 9 acceptor
5 8 9 14 15 16 rings
6 17 20 21 22 24 25 rings
6 28 29 30 31 32 33 rings

> <PUBCHEM_HEAVY_ATOM_COUNT>
34

> <PUBCHEM_ATOM_DEF_STEREO_COUNT>
1

> <PUBCHEM_ATOM_UDEF_STEREO_COUNT>
0

> <PUBCHEM_BOND_DEF_STEREO_COUNT>
0

> <PUBCHEM_BOND_UDEF_STEREO_COUNT>
0

> <PUBCHEM_ISOTOPIC_ATOM_COUNT>
0

> <PUBCHEM_COMPONENT_COUNT>
1

> <PUBCHEM_CACTVS_TAUTO_COUNT>
14

> <PUBCHEM_CONFORMER_ID>
07B4809B00000006

> <PUBCHEM_MMFF94_ENERGY>
90.6361

> <PUBCHEM_FEATURE_SELFOVERLAP>
55.822

> <PUBCHEM_SHAPE_FINGERPRINT>
10119406 146 18411411792702869583
10319926 262 18130499777865555657
10554248 39 14057265481691383608
10677351 27 18128836182777028302
11387372 6 18260552200007141803
11524674 6 16988833952470201877
117089 54 17972326389237601515
11796584 16 18201721704865283876
12422481 6 17632295726271043255
1361 4 18409731785552780070
13690498 29 18411138060576598157
13782708 43 17917703638772889661
13911987 19 14779263099227109377
14347332 77 18339920515165990277
14420673 8 18341891827433784887
14856354 85 18271527490035732301
15183329 4 18335420110941858720
15230672 131 18193270789215584067
15352257 5 18342176657054591774
15361156 5 18113908138675305061
15467298 65 18334570214123801914
15684393 108 18114747139035420895
15799311 1 18339092505489944344
17492 89 18339920527871836457
20775438 99 17894354385225823386
21599406 157 17676478454467176046
21781055 127 17702103561470226689
21814621 53 17917700288730340513
2303208 19 17846495954633781752
23522609 53 18195275272529610288
23559900 14 18341884238565008169
3004659 81 18335984148202137264
4046055 25 18260269625224067428
439807 62 18410858771579998359
44062 13 18342452621335086441
4435113 14 18410865326148946462
474113 269 17986661770807106151
5104073 3 17846780727792351193
513202 73 18340487859219115019
6697151 62 17631145547199659704
7970288 3 17978786037288286615
86090 222 15912784833959156884
8863177 126 18130781291813054288

> <PUBCHEM_SHAPE_MULTIPOLES>
628.1
21.54
4.42
1.44
15.48
2.52
0.06
14.72
4.17
-4.2
-0.23
1.31
0.05
-1.31

> <PUBCHEM_SHAPE_SELFOVERLAP>
1365.58

> <PUBCHEM_SHAPE_VOLUME>
343.9

> <PUBCHEM_COORDINATE_TYPE>
2
5
10

$$$$
6445562
  -OEChem-11282412143D

 56 58  0     0  0  0  0  0  0999 V2000
    2.5915   -3.4358   -3.0401 Cl  0  0  0  0  0  0  0  0  0  0  0  0
    2.1108   -5.5947   -1.0659 F   0  0  0  0  0  0  0  0  0  0  0  0
   -1.5738    3.9404   -1.0639 O   0  0  0  0  0  0  0  0  0  0  0  0
   -1.8756   -0.7192    0.9786 O   0  0  0  0  0  0  0  0  0  0  0  0
    2.4217   -0.5441    1.1916 N   0  0  0  0  0  0  0  0  0  0  0  0
   -2.1377    1.4124    0.0177 N   0  0  0  0  0  0  0  0  0  0  0  0
    3.0889    3.2654   -0.4493 N   0  0  0  0  0  0  0  0  0  0  0  0
   -6.5468   -2.4118    0.1661 N   0  0  0  0  0  0  0  0  0  0  0  0
    6.0017   -0.1511    1.2612 N   0  0  0  0  0  0  0  0  0  0  0  0
    1.5547    1.5298    0.2153 C   0  0  0  0  0  0  0  0  0  0  0  0
    1.8306    2.8017   -0.3291 C   0  0  0  0  0  0  0  0  0  0  0  0
    2.6360    0.7438    0.6362 C   0  0  0  0  0  0  0  0  0  0  0  0
   -0.8264    1.8790   -0.0997 C   0  0  0  0  0  0  0  0  0  0  0  0
    0.2290    1.0776    0.3262 C   0  0  0  0  0  0  0  0  0  0  0  0
   -0.5621    3.1327   -0.6370 C   0  0  0  0  0  0  0  0  0  0  0  0
    0.7561    3.5821   -0.7471 C   0  0  0  0  0  0  0  0  0  0  0  0
    3.9338    1.2189    0.5134 C   0  0  0  0  0  0  0  0  0  0  0  0
    4.1044    2.4755   -0.0312 C   0  0  0  0  0  0  0  0  0  0  0  0
    2.3436   -1.8209    0.6159 C   0  0  0  0  0  0  0  0  0  0  0  0
   -2.5728    0.1841    0.5319 C   0  0  0  0  0  0  0  0  0  0  0  0
   -1.6982    5.2117   -0.4303 C   0  0  0  0  0  0  0  0  0  0  0  0
   -6.1572   -1.2252    0.9208 C   0  0  0  0  0  0  0  0  0  0  0  0
    2.4886   -1.9819   -0.7659 C   0  0  0  0  0  0  0  0  0  0  0  0
    2.1198   -2.9437    1.4195 C   0  0  0  0  0  0  0  0  0  0  0  0
   -4.0605    0.0640    0.4840 C   0  0  0  0  0  0  0  0  0  0  0  0
   -4.6686   -1.0437    0.9317 C   0  0  0  0  0  0  0  0  0  0  0  0
    5.0748    0.4630    0.9261 C   0  0  0  0  0  0  0  0  0  0  0  0
    2.4110   -3.2518   -1.3379 C   0  0  0  0  0  0  0  0  0  0  0  0
    2.0418   -4.2135    0.8475 C   0  0  0  0  0  0  0  0  0  0  0  0
   -3.1522    5.6326   -0.4508 C   0  0  0  0  0  0  0  0  0  0  0  0
    2.1876   -4.3676   -0.5312 C   0  0  0  0  0  0  0  0  0  0  0  0
   -7.9969   -2.6017    0.2187 C   0  0  0  0  0  0  0  0  0  0  0  0
   -6.0975   -2.3082   -1.2229 C   0  0  0  0  0  0  0  0  0  0  0  0
    0.0712    0.1007    0.7556 H   0  0  0  0  0  0  0  0  0  0  0  0
    0.9545    4.5621   -1.1783 H   0  0  0  0  0  0  0  0  0  0  0  0
    2.2987   -0.5215    2.1998 H   0  0  0  0  0  0  0  0  0  0  0  0
   -2.8487    2.0600   -0.3165 H   0  0  0  0  0  0  0  0  0  0  0  0
    5.0909    2.9127   -0.1580 H   0  0  0  0  0  0  0  0  0  0  0  0
   -1.3502    5.1690    0.6094 H   0  0  0  0  0  0  0  0  0  0  0  0
   -1.0924    5.9430   -0.9763 H   0  0  0  0  0  0  0  0  0  0  0  0
   -6.6576   -0.3284    0.5313 H   0  0  0  0  0  0  0  0  0  0  0  0
   -6.4759   -1.3363    1.9651 H   0  0  0  0  0  0  0  0  0  0  0  0
    2.6626   -1.1204   -1.4067 H   0  0  0  0  0  0  0  0  0  0  0  0
    2.0042   -2.8392    2.4955 H   0  0  0  0  0  0  0  0  0  0  0  0
   -4.6357    0.8895    0.0779 H   0  0  0  0  0  0  0  0  0  0  0  0
   -4.0846   -1.8632    1.3443 H   0  0  0  0  0  0  0  0  0  0  0  0
    1.8679   -5.0823    1.4753 H   0  0  0  0  0  0  0  0  0  0  0  0
   -3.2829    6.6114    0.0191 H   0  0  0  0  0  0  0  0  0  0  0  0
   -3.5252    5.6816   -1.4791 H   0  0  0  0  0  0  0  0  0  0  0  0
   -3.7721    4.9009    0.0778 H   0  0  0  0  0  0  0  0  0  0  0  0
   -8.2839   -3.5210   -0.3039 H   0  0  0  0  0  0  0  0  0  0  0  0
   -8.5415   -1.7641   -0.2322 H   0  0  0  0  0  0  0  0  0  0  0  0
   -8.3332   -2.7138    1.2556 H   0  0  0  0  0  0  0  0  0  0  0  0
   -5.0056   -2.3235   -1.3042 H   0  0  0  0  0  0  0  0  0  0  0  0
   -6.4754   -1.4048   -1.7161 H   0  0  0  0  0  0  0  0  0  0  0  0
   -6.4449   -3.1742   -1.7992 H   0  0  0  0  0  0  0  0  0  0  0  0
  1 28  1  0  0  0  0
  2 31  1  0  0  0  0
  3 15  1  0  0  0  0
  3 21  1  0  0  0  0
  4 20  2  0  0  0  0
  5 12  1  0  0  0  0
  5 19  1  0  0  0  0
  5 36  1  0  0  0  0
  6 13  1  0  0  0  0
  6 20  1  0  0  0  0
  6 37  1  0  0  0  0
  7 11  1  0  0  0  0
  7 18  2  0  0  0  0
  8 22  1  0  0  0  0
  8 32  1  0  0  0  0
  8 33  1  0  0  0  0
  9 27  3  0  0  0  0
 10 11  1  0  0  0  0
 10 12  1  0  0  0  0
 10 14  2  0  0  0  0
 11 16  2  0  0  0  0
 12 17  2  0  0  0  0
 13 14  1  0  0  0  0
 13 15  2  0  0  0  0
 14 34  1  0  0  0  0
 15 16  1  0  0  0  0
 16 35  1  0  0  0  0
 17 18  1  0  0  0  0
 17 27  1  0  0  0  0
 18 38  1  0  0  0  0
 19 23  2  0  0  0  0
 19 24  1  0  0  0  0
 20 25  1  0  0  0  0
 21 30  1  0  0  0  0
 21 39  1  0  0  0  0
 21 40  1  0  0  0  0
 22 26  1  0  0  0  0
 22 41  1  0  0  0  0
 22 42  1  0  0  0  0
 23 28  1  0  0  0  0
 23 43  1  0  0  0  0
 24 29  2  0  0  0  0
 24 44  1  0  0  0  0
 25 26  2  0  0  0  0
 25 45  1  0  0  0  0
 26 46  1  0  0  0  0
 28 31  2  0  0  0  0
 29 31  1  0  0  0  0
 29 47  1  0  0  0  0
 30 48  1  0  0  0  0
 30 49  1  0  0  0  0
 30 50  1  0  0  0  0
 32 51  1  0  0  0  0
 32 52  1  0  0  0  0
 32 53  1  0  0  0  0
 33 54  1  0  0  0  0
 33 55  1  0  0  0  0
 33 56  1  0  0  0  0
M  END
> <PUBCHEM_COMPOUND_CID>
6445562

> <PUBCHEM_CONFORMER_RMSD>
1

> <PUBCHEM_CONFORMER_DIVERSEORDER>
1
15
34
5
10
27
28
2
4
29
19
21
25
8
30
36
22
35
20
32
26
14
18
23
24
9
7
16
3
12
17
33
31
6
11
13

> <PUBCHEM_MMFF94_PARTIAL_CHARGES>
41
1 -0.18
11 0.31
12 0.1
13 0.12
14 -0.15
15 0.08
16 -0.15
17 0.07
18 0.16
19 0.1
2 -0.19
20 0.62
21 0.28
22 0.41
23 -0.15
24 -0.15
25 -0.14
26 -0.29
27 0.48
28 0.18
29 -0.15
3 -0.36
31 0.19
32 0.27
33 0.27
34 0.15
35 0.15
36 0.4
37 0.37
38 0.15
4 -0.57
43 0.15
44 0.15
45 0.15
46 0.15
47 0.15
5 -0.6
6 -0.55
7 -0.62
8 -0.81
9 -0.56

> <PUBCHEM_EFFECTIVE_ROTOR_COUNT>
9

> <PUBCHEM_PHARMACOPHORE_FEATURES>
11
1 3 acceptor
1 4 acceptor
1 5 cation
1 5 donor
1 6 donor
1 7 acceptor
1 8 cation
1 9 acceptor
6 10 11 13 14 15 16 rings
6 19 23 24 28 29 31 rings
6 7 10 11 12 17 18 rings

> <PUBCHEM_HEAVY_ATOM_COUNT>
33

> <PUBCHEM_ATOM_DEF_STEREO_COUNT>
0

> <PUBCHEM_ATOM_UDEF_STEREO_COUNT>
0

> <PUBCHEM_BOND_DEF_STEREO_COUNT>
1

> <PUBCHEM_BOND_UDEF_STEREO_COUNT>
0

> <PUBCHEM_ISOTOPIC_ATOM_COUNT>
0

> <PUBCHEM_COMPONENT_COUNT>
1

> <PUBCHEM_CACTVS_TAUTO_COUNT>
6

> <PUBCHEM_CONFORMER_ID>
006259FA00000001

> <PUBCHEM_MMFF94_ENERGY>
115.5772

> <PUBCHEM_FEATURE_SELFOVERLAP>
55.853

> <PUBCHEM_SHAPE_FINGERPRINT>
102385 1 18265618684467578949
11421498 54 17846788403214848752
12202916 173 18187638158671396442
1361 2 18338801251036647059
14068700 686 18411130325604729264
14117953 113 18338797926225622615
14863182 85 18336275646851827628
15484559 13 18193565694480949143
18681886 176 17977101593362673617
19301679 30 18408328774725050745
20028762 73 18342459300325716746
20771845 140 17846779658630317314
20775438 99 17761745413343656316
21197605 99 18194405721623702035
23559900 14 17618774766118508754
255183 313 18055604383872922954
3882209 13 17394122640173098891
394071 54 18338529633310691483
5309563 4 18408601483072330937

> <PUBCHEM_SHAPE_MULTIPOLES>
637.08
13.18
8.4
1.48
26.85
2.49
0.84
-11.13
-2.62
0.06
3.74
-1.12
-1.67
1.72

> <PUBCHEM_SHAPE_SELFOVERLAP>
1353.624

> <PUBCHEM_SHAPE_VOLUME>
357.1

> <PUBCHEM_COORDINATE_TYPE>
2
5
10

$$$$
6918403
  -OEChem-11282412143D

 43 46  0     1  0  0  0  0  0999 V2000
    7.5088   -1.5759   -0.2149 O   0  0  0  0  0  0  0  0  0  0  0  0
   -1.9239   -0.3005    1.2430 N   0  0  0  0  0  0  0  0  0  0  0  0
    1.9492    1.6326   -0.4968 N   0  0  0  0  0  0  0  0  0  0  0  0
   -2.0144    1.8688    0.2502 N   0  0  0  0  0  0  0  0  0  0  0  0
   -0.0520    2.9644   -0.6857 N   0  0  0  0  0  0  0  0  0  0  0  0
   -3.3224   -0.3146    1.5520 C   0  0  1  0  0  0  0  0  0  0  0  0
    0.0742    0.7432    0.3239 C   0  0  0  0  0  0  0  0  0  0  0  0
   -1.2915    0.7803    0.6020 C   0  0  0  0  0  0  0  0  0  0  0  0
    2.2812    0.4008    0.0065 C   0  0  0  0  0  0  0  0  0  0  0  0
    0.6108    1.8562   -0.3117 C   0  0  0  0  0  0  0  0  0  0  0  0
   -4.1690   -0.6618    0.3471 C   0  0  0  0  0  0  0  0  0  0  0  0
    1.1386   -0.1731    0.5219 C   0  0  0  0  0  0  0  0  0  0  0  0
   -3.5612   -1.2846    2.7073 C   0  0  0  0  0  0  0  0  0  0  0  0
    3.6299   -0.1093   -0.0509 C   0  0  0  0  0  0  0  0  0  0  0  0
   -3.6644   -1.5288   -0.6068 C   0  0  0  0  0  0  0  0  0  0  0  0
   -5.4303   -0.1048    0.2240 C   0  0  0  0  0  0  0  0  0  0  0  0
    3.8521   -1.4830   -0.1405 C   0  0  0  0  0  0  0  0  0  0  0  0
    4.7101    0.7721   -0.0163 C   0  0  0  0  0  0  0  0  0  0  0  0
   -1.3587    2.8795   -0.3634 C   0  0  0  0  0  0  0  0  0  0  0  0
   -4.4448   -1.8485   -1.7178 C   0  0  0  0  0  0  0  0  0  0  0  0
   -6.2108   -0.4246   -0.8869 C   0  0  0  0  0  0  0  0  0  0  0  0
   -5.7180   -1.2965   -1.8579 C   0  0  0  0  0  0  0  0  0  0  0  0
    5.1559   -1.9760   -0.1956 C   0  0  0  0  0  0  0  0  0  0  0  0
    6.0138    0.2790   -0.0715 C   0  0  0  0  0  0  0  0  0  0  0  0
    6.2367   -1.0950   -0.1611 C   0  0  0  0  0  0  0  0  0  0  0  0
   -3.6155    0.6795    1.9169 H   0  0  0  0  0  0  0  0  0  0  0  0
   -1.3580   -1.1156    1.4524 H   0  0  0  0  0  0  0  0  0  0  0  0
    1.0712   -1.1442    0.9946 H   0  0  0  0  0  0  0  0  0  0  0  0
    2.5796    2.2794   -0.9505 H   0  0  0  0  0  0  0  0  0  0  0  0
   -4.6147   -1.2895    3.0085 H   0  0  0  0  0  0  0  0  0  0  0  0
   -2.9616   -1.0063    3.5814 H   0  0  0  0  0  0  0  0  0  0  0  0
   -3.2898   -2.3114    2.4346 H   0  0  0  0  0  0  0  0  0  0  0  0
   -2.6843   -1.9871   -0.5157 H   0  0  0  0  0  0  0  0  0  0  0  0
   -5.8236    0.5738    0.9754 H   0  0  0  0  0  0  0  0  0  0  0  0
    3.0286   -2.1918   -0.1770 H   0  0  0  0  0  0  0  0  0  0  0  0
    4.5722    1.8471    0.0671 H   0  0  0  0  0  0  0  0  0  0  0  0
   -1.9665    3.7367   -0.6324 H   0  0  0  0  0  0  0  0  0  0  0  0
   -4.0629   -2.5305   -2.4720 H   0  0  0  0  0  0  0  0  0  0  0  0
   -7.2025    0.0047   -0.9957 H   0  0  0  0  0  0  0  0  0  0  0  0
   -6.3261   -1.5463   -2.7223 H   0  0  0  0  0  0  0  0  0  0  0  0
    5.3162   -3.0484   -0.2670 H   0  0  0  0  0  0  0  0  0  0  0  0
    6.8521    0.9699   -0.0412 H   0  0  0  0  0  0  0  0  0  0  0  0
    7.4766   -2.5462   -0.2745 H   0  0  0  0  0  0  0  0  0  0  0  0
  1 25  1  0  0  0  0
  1 43  1  0  0  0  0
  2  6  1  0  0  0  0
  2  8  1  0  0  0  0
  2 27  1  0  0  0  0
  3  9  1  0  0  0  0
  3 10  1  0  0  0  0
  3 29  1  0  0  0  0
  4  8  2  0  0  0  0
  4 19  1  0  0  0  0
  5 10  1  0  0  0  0
  5 19  2  0  0  0  0
  6 11  1  0  0  0  0
  6 13  1  0  0  0  0
  6 26  1  0  0  0  0
  7  8  1  0  0  0  0
  7 10  2  0  0  0  0
  7 12  1  0  0  0  0
  9 12  2  0  0  0  0
  9 14  1  0  0  0  0
 11 15  2  0  0  0  0
 11 16  1  0  0  0  0
 12 28  1  0  0  0  0
 13 30  1  0  0  0  0
 13 31  1  0  0  0  0
 13 32  1  0  0  0  0
 14 17  2  0  0  0  0
 14 18  1  0  0  0  0
 15 20  1  0  0  0  0
 15 33  1  0  0  0  0
 16 21  2  0  0  0  0
 16 34  1  0  0  0  0
 17 23  1  0  0  0  0
 17 35  1  0  0  0  0
 18 24  2  0  0  0  0
 18 36  1  0  0  0  0
 19 37  1  0  0  0  0
 20 22  2  0  0  0  0
 20 38  1  0  0  0  0
 21 22  1  0  0  0  0
 21 39  1  0  0  0  0
 22 40  1  0  0  0  0
 23 25  2  0  0  0  0
 23 41  1  0  0  0  0
 24 25  1  0  0  0  0
 24 42  1  0  0  0  0
M  END
> <PUBCHEM_COMPOUND_CID>
6918403

> <PUBCHEM_CONFORMER_RMSD>
0.8

> <PUBCHEM_CONFORMER_DIVERSEORDER>
1
26
20
9
10
13
17
15
14
7
18
16
2
8
6
27
3
19
21
5
24
25
4
23
12
11
22

> <PUBCHEM_MMFF94_PARTIAL_CHARGES>
37
1 -0.53
10 0.11
11 -0.14
12 -0.15
14 0.05
15 -0.15
16 -0.15
17 -0.15
18 -0.15
19 0.47
2 -0.87
20 -0.15
21 -0.15
22 -0.15
23 -0.15
24 -0.15
25 0.08
27 0.4
28 0.15
29 0.27
3 0.03
33 0.15
34 0.15
35 0.15
36 0.15
37 0.15
38 0.15
39 0.15
4 -0.62
40 0.15
41 0.15
42 0.15
43 0.45
5 -0.57
6 0.51
8 0.41
9 -0.2

> <PUBCHEM_EFFECTIVE_ROTOR_COUNT>
4

> <PUBCHEM_PHARMACOPHORE_FEATURES>
10
1 1 donor
1 2 donor
1 3 cation
1 3 donor
3 2 4 8 cation
3 4 5 19 cation
5 3 7 9 10 12 rings
6 11 15 16 20 21 22 rings
6 14 17 18 23 24 25 rings
6 4 5 7 8 10 19 rings

> <PUBCHEM_HEAVY_ATOM_COUNT>
25

> <PUBCHEM_ATOM_DEF_STEREO_COUNT>
1

> <PUBCHEM_ATOM_UDEF_STEREO_COUNT>
0

> <PUBCHEM_BOND_DEF_STEREO_COUNT>
0

> <PUBCHEM_BOND_UDEF_STEREO_COUNT>
0

> <PUBCHEM_ISOTOPIC_ATOM_COUNT>
0

> <PUBCHEM_COMPONENT_COUNT>
1

> <PUBCHEM_CACTVS_TAUTO_COUNT>
18

> <PUBCHEM_CONFORMER_ID>
0069910300000001

> <PUBCHEM_MMFF94_ENERGY>
66.2686

> <PUBCHEM_FEATURE_SELFOVERLAP>
50.978

> <PUBCHEM_SHAPE_FINGERPRINT>
10 15 13470682646901873130
10447042 23 18260546719438857226
10493431 412 9943807794049844569
106641 1 11095877194957848967
10803635 8 16443065019052016299
11135926 11 17458347394830884082
11315181 36 17132116866268238171
11393246 34 18129384804756415142
12166972 35 17987792055442130795
12236239 1 17989207074713414751
12596602 18 16702303451586792258
12760667 363 18410014316574175608
12788726 201 18115577154830290145
12895836 83 14634867565718955203
13544653 18 18410583893868148904
13583140 156 15697715891940027595
13782708 43 18201440238689497678
14068700 675 18059852874425881865
14251752 14 15502365721373636642
14508225 48 18113337509304944108
1454969 45 18411421748300061004
14556957 393 17677348129641715828
14840074 17 18343868822350144038
14931854 50 17822555150365431503
15183329 4 16877937222371640209
15188451 53 16988558026670293183
15880784 105 17918273177232439082
16087824 20 18191303776943919061
17492 89 17981318216893716391
17857418 61 18272933825636939142
17913733 40 11095892570113068037
18222031 100 18411132554718467136
18927931 339 18336276660289983926
19784866 240 18201718496550736807
19958102 18 17168136789389143026
200 152 18412545427170676249
20028762 73 17989486321151453318
21236236 1 18337112263489516145
21267235 1 18334301972267338321
21424621 283 11241965971428691558
21756936 100 11530482237999745585
21792961 116 16950285091816609995
22224240 67 10663822992732484221
23198884 109 13045944607520655617
23402539 116 18409169908903079601
23522609 53 18056791842977047136
23536364 44 17967800618845916213
23559900 14 17968380164104757776
25025965 108 18268131077575900858
255183 313 17914356593089347457
2838139 119 12251904810843641814
3004659 81 17822009822151180704
3009799 131 17894624876989819828
314194 84 18340494447297786738
4015057 19 18262804093772212905
444735 86 18190177898073783562
445580 204 12179843892490471030
46194498 28 16590287543379098255
504579 68 17968110703026780798
5283173 99 17894904088345140909
559249 180 18131912668236021447
5969126 39 18409443657365974468
59755656 215 18041278786059485858
613672 6 18259988188674266754
636775 72 11242267272592600358
6431902 208 18335425668513456434
6691757 9 16917078750807226195
7495541 125 17418372515383740016

> <PUBCHEM_SHAPE_MULTIPOLES>
488.69
16.87
2.45
1.45
12.8
1.41
0.62
-11.56
-3.8
0.28
-0.72
-3.09
-0.71
-0.59

> <PUBCHEM_SHAPE_SELFOVERLAP>
1086.74

> <PUBCHEM_SHAPE_VOLUME>
258.6

> <PUBCHEM_COORDINATE_TYPE>
2
5
10

$$$$
59174488
  -OEChem-11282412143D

 53 55  0     0  0  0  0  0  0999 V2000
    5.9813    0.1295    0.0968 F   0  0  0  0  0  0  0  0  0  0  0  0
   -3.8698   -1.8431    0.7940 O   0  0  0  0  0  0  0  0  0  0  0  0
   -5.9378    1.1419    1.0188 O   0  0  0  0  0  0  0  0  0  0  0  0
   -0.5662    0.1768   -1.4720 O   0  0  0  0  0  0  0  0  0  0  0  0
    3.5257    1.2577    0.6658 N   0  0  0  0  0  0  0  0  0  0  0  0
    1.5060   -2.9397   -0.1138 N   0  0  0  0  0  0  0  0  0  0  0  0
    2.4886   -0.8485    0.2770 N   0  0  0  0  0  0  0  0  0  0  0  0
   -0.8725    2.4545   -0.9652 N   0  0  0  0  0  0  0  0  0  0  0  0
    3.8301   -2.7507   -0.3471 N   0  0  0  0  0  0  0  0  0  0  0  0
    2.5141    2.2148    0.4832 C   0  0  0  0  0  0  0  0  0  0  0  0
    0.1426   -2.6625    0.1174 C   0  0  0  0  0  0  0  0  0  0  0  0
   -2.5541   -2.1120    0.5724 C   0  0  0  0  0  0  0  0  0  0  0  0
    1.3234    1.8593   -0.1505 C   0  0  0  0  0  0  0  0  0  0  0  0
    0.3191    2.8100   -0.3316 C   0  0  0  0  0  0  0  0  0  0  0  0
    3.6187   -0.1127    0.3207 C   0  0  0  0  0  0  0  0  0  0  0  0
   -0.2229   -1.6707    1.0275 C   0  0  0  0  0  0  0  0  0  0  0  0
   -0.8404   -3.3793   -0.5651 C   0  0  0  0  0  0  0  0  0  0  0  0
    2.7005    3.5210    0.9358 C   0  0  0  0  0  0  0  0  0  0  0  0
   -1.5711   -1.3953    1.2549 C   0  0  0  0  0  0  0  0  0  0  0  0
   -2.1887   -3.1041   -0.3377 C   0  0  0  0  0  0  0  0  0  0  0  0
    2.6646   -2.1408   -0.0588 C   0  0  0  0  0  0  0  0  0  0  0  0
    0.5054    4.1163    0.1209 C   0  0  0  0  0  0  0  0  0  0  0  0
    1.6960    4.4717    0.7547 C   0  0  0  0  0  0  0  0  0  0  0  0
   -4.2065   -0.5054    1.1588 C   0  0  0  0  0  0  0  0  0  0  0  0
    4.8735   -0.6176    0.0474 C   0  0  0  0  0  0  0  0  0  0  0  0
   -5.5940   -0.1847    0.6376 C   0  0  0  0  0  0  0  0  0  0  0  0
    4.9189   -1.9564   -0.2841 C   0  0  0  0  0  0  0  0  0  0  0  0
   -1.2355    1.2032   -1.4811 C   0  0  0  0  0  0  0  0  0  0  0  0
   -7.2239    1.5054    0.5366 C   0  0  0  0  0  0  0  0  0  0  0  0
   -2.6000    1.2314   -2.0836 C   0  0  0  0  0  0  0  0  0  0  0  0
   -3.1252    0.1302   -2.6297 C   0  0  0  0  0  0  0  0  0  0  0  0
    1.2170    0.8626   -0.5345 H   0  0  0  0  0  0  0  0  0  0  0  0
    4.3592    1.6146    1.1248 H   0  0  0  0  0  0  0  0  0  0  0  0
    0.5060   -1.1232    1.6157 H   0  0  0  0  0  0  0  0  0  0  0  0
   -0.5687   -4.1535   -1.2781 H   0  0  0  0  0  0  0  0  0  0  0  0
    1.6858   -3.8613   -0.5009 H   0  0  0  0  0  0  0  0  0  0  0  0
    3.6232    3.8120    1.4314 H   0  0  0  0  0  0  0  0  0  0  0  0
   -1.8134   -0.6414    1.9981 H   0  0  0  0  0  0  0  0  0  0  0  0
   -2.9501   -3.6644   -0.8733 H   0  0  0  0  0  0  0  0  0  0  0  0
   -0.2687    4.8677   -0.0134 H   0  0  0  0  0  0  0  0  0  0  0  0
    1.8410    5.4887    1.1071 H   0  0  0  0  0  0  0  0  0  0  0  0
   -4.1846   -0.4085    2.2509 H   0  0  0  0  0  0  0  0  0  0  0  0
   -3.5123    0.2330    0.7374 H   0  0  0  0  0  0  0  0  0  0  0  0
   -6.3215   -0.8950    1.0487 H   0  0  0  0  0  0  0  0  0  0  0  0
   -5.6151   -0.2825   -0.4546 H   0  0  0  0  0  0  0  0  0  0  0  0
   -1.5497    3.2094   -1.0546 H   0  0  0  0  0  0  0  0  0  0  0  0
    5.8610   -2.4419   -0.5152 H   0  0  0  0  0  0  0  0  0  0  0  0
   -7.2462    1.4738   -0.5570 H   0  0  0  0  0  0  0  0  0  0  0  0
   -7.9900    0.8417    0.9490 H   0  0  0  0  0  0  0  0  0  0  0  0
   -7.4367    2.5277    0.8603 H   0  0  0  0  0  0  0  0  0  0  0  0
   -3.1669    2.1558   -2.0682 H   0  0  0  0  0  0  0  0  0  0  0  0
   -4.1207    0.1607   -3.0599 H   0  0  0  0  0  0  0  0  0  0  0  0
   -2.5950   -0.8146   -2.6662 H   0  0  0  0  0  0  0  0  0  0  0  0
  1 25  1  0  0  0  0
  2 12  1  0  0  0  0
  2 24  1  0  0  0  0
  3 26  1  0  0  0  0
  3 29  1  0  0  0  0
  4 28  2  0  0  0  0
  5 10  1  0  0  0  0
  5 15  1  0  0  0  0
  5 33  1  0  0  0  0
  6 11  1  0  0  0  0
  6 21  1  0  0  0  0
  6 36  1  0  0  0  0
  7 15  2  0  0  0  0
  7 21  1  0  0  0  0
  8 14  1  0  0  0  0
  8 28  1  0  0  0  0
  8 46  1  0  0  0  0
  9 21  2  0  0  0  0
  9 27  1  0  0  0  0
 10 13  2  0  0  0  0
 10 18  1  0  0  0  0
 11 16  2  0  0  0  0
 11 17  1  0  0  0  0
 12 19  2  0  0  0  0
 12 20  1  0  0  0  0
 13 14  1  0  0  0  0
 13 32  1  0  0  0  0
 14 22  2  0  0  0  0
 15 25  1  0  0  0  0
 16 19  1  0  0  0  0
 16 34  1  0  0  0  0
 17 20  2  0  0  0  0
 17 35  1  0  0  0  0
 18 23  2  0  0  0  0
 18 37  1  0  0  0  0
 19 38  1  0  0  0  0
 20 39  1  0  0  0  0
 22 23  1  0  0  0  0
 22 40  1  0  0  0  0
 23 41  1  0  0  0  0
 24 26  1  0  0  0  0
 24 42  1  0  0  0  0
 24 43  1  0  0  0  0
 25 27  2  0  0  0  0
 26 44  1  0  0  0  0
 26 45  1  0  0  0  0
 27 47  1  0  0  0  0
 28 30  1  0  0  0  0
 29 48  1  0  0  0  0
 29 49  1  0  0  0  0
 29 50  1  0  0  0  0
 30 31  2  0  0  0  0
 30 51  1  0  0  0  0
 31 52  1  0  0  0  0
 31 53  1  0  0  0  0
M  END
> <PUBCHEM_COMPOUND_CID>
59174488

> <PUBCHEM_CONFORMER_RMSD>
1

> <PUBCHEM_CONFORMER_DIVERSEORDER>
2
112
28
55
102
83
79
41
66
27
95
47
35
24
67
118
113
72
82
5
97
73
32
20
3
54
29
59
106
60
105
26
65
85
42
10
38
34
30
44
64
78
98
81
22
100
48
46
1
40
49
115
53
77
70
76
110
71
36
56
68
43
21
4
111
39
103
109
18
37
99
52
86
114
51
57
96
80
45
62
50
17
116
9
33
16
63
92
93
23
88
31
8
108
58
25
12
101
7
107
61
11
15
84
14
19
69
91
89
6
117
74
75
90
94
104
87
13

> <PUBCHEM_MMFF94_PARTIAL_CHARGES>
46
1 -0.19
10 0.1
11 0.1
12 0.08
13 -0.15
14 0.12
15 0.41
16 -0.15
17 -0.15
18 -0.15
19 -0.15
2 -0.36
20 -0.15
21 0.72
22 -0.15
23 -0.15
24 0.28
25 0.19
26 0.28
27 0.16
28 0.62
29 0.28
3 -0.56
30 -0.14
31 -0.3
32 0.15
33 0.4
34 0.15
35 0.15
36 0.4
37 0.15
38 0.15
39 0.15
4 -0.57
40 0.15
41 0.15
46 0.37
47 0.15
5 -0.6
51 0.15
52 0.15
53 0.15
6 -0.6
7 -0.62
8 -0.55
9 -0.62

> <PUBCHEM_EFFECTIVE_ROTOR_COUNT>
11

> <PUBCHEM_PHARMACOPHORE_FEATURES>
11
1 2 acceptor
1 3 acceptor
1 31 hydrophobe
1 4 acceptor
1 5 donor
1 6 donor
1 8 donor
4 6 7 9 21 cation
6 10 13 14 18 22 23 rings
6 11 12 16 17 19 20 rings
6 7 9 15 21 25 27 rings

> <PUBCHEM_HEAVY_ATOM_COUNT>
31

> <PUBCHEM_ATOM_DEF_STEREO_COUNT>
0

> <PUBCHEM_ATOM_UDEF_STEREO_COUNT>
0

> <PUBCHEM_BOND_DEF_STEREO_COUNT>
0

> <PUBCHEM_BOND_UDEF_STEREO_COUNT>
0

> <PUBCHEM_ISOTOPIC_ATOM_COUNT>
0

> <PUBCHEM_COMPONENT_COUNT>
1

> <PUBCHEM_CACTVS_TAUTO_COUNT>
18

> <PUBCHEM_CONFORMER_ID>
0386EE5800000002

> <PUBCHEM_MMFF94_ENERGY>
114.9256

> <PUBCHEM_FEATURE_SELFOVERLAP>
55.821

> <PUBCHEM_SHAPE_FINGERPRINT>
10006869 2 18118959192378291355
11370993 70 17188973952375120192
11513181 2 17697611244262786062
12156800 1 17547338481606476606
12422481 6 18041286543165573971
12717326 135 15937795326509487677
12788726 201 17979619161995321760
12925494 130 18410295852587894203
13165053 68 18269268123829309247
13402501 40 18261395516223554011
13583140 156 17127899294209325617
14117953 113 18342464699030958286
14790565 3 17471302124456080412
16087824 20 18339367348699988448
17980427 23 17773333253079372193
20429552 37 18410015433846051225
20764821 26 18264753519482369684
20775438 99 17477712139485081302
21585483 110 18334571292718846229
3493558 16 17844545326727719843
437795 51 18116414961679854893
469060 322 16661507111835314239
56638632 10 18341889680551978277
57828716 16 17060046078823857431

> <PUBCHEM_SHAPE_MULTIPOLES>
588.18
11.34
5.46
1.46
9.55
3
0.87
0.22
-2.9
-3.08
-0.58
1.78
0.38
1.17

> <PUBCHEM_SHAPE_SELFOVERLAP>
1252.061

> <PUBCHEM_SHAPE_VOLUME>
324.5

> <PUBCHEM_COORDINATE_TYPE>
2
5
10

$$$$
118023034
  -OEChem-11282412143D

 64 69  0     1  0  0  0  0  0999 V2000
   -8.0916   -3.3501    2.5047 F   0  0  0  0  0  0  0  0  0  0  0  0
    2.1838    2.0147    0.1666 N   0  0  0  0  0  0  0  0  0  0  0  0
   -0.6131    1.4951   -0.2807 N   0  0  0  0  0  0  0  0  0  0  0  0
    5.8081    1.5476    0.5497 N   0  0  0  0  0  0  0  0  0  0  0  0
    3.9236    3.4687    0.6428 N   0  0  0  0  0  0  0  0  0  0  0  0
   -2.3016    0.7659   -1.7098 N   0  0  0  0  0  0  0  0  0  0  0  0
   -2.7975    1.5069    0.5289 N   0  0  0  0  0  0  0  0  0  0  0  0
   -6.3575   -0.0215   -2.5204 N   0  0  0  0  0  0  0  0  0  0  0  0
    6.2334    2.8046    0.8229 N   0  0  0  0  0  0  0  0  0  0  0  0
    6.2722   -4.1132   -0.6433 N   0  0  0  0  0  0  0  0  0  0  0  0
    7.3064   -3.9658    0.2022 N   0  0  0  0  0  0  0  0  0  0  0  0
    1.7446    0.9370   -0.7157 C   0  0  0  0  0  0  0  0  0  0  0  0
    1.1504    2.8195    0.8127 C   0  0  0  0  0  0  0  0  0  0  0  0
    0.3785    1.2452   -1.3291 C   0  0  0  0  0  0  0  0  0  0  0  0
   -0.1377    2.0184    1.0021 C   0  0  0  0  0  0  0  0  0  0  0  0
    3.4986    2.2584    0.3774 C   0  0  0  0  0  0  0  0  0  0  0  0
   -1.9654    1.2448   -0.4969 C   0  0  0  0  0  0  0  0  0  0  0  0
    4.4970    1.2173    0.3241 C   0  0  0  0  0  0  0  0  0  0  0  0
   -6.0136    0.4935   -1.1451 C   0  0  2  0  0  0  0  0  0  0  0  0
   -4.5732    0.7609   -0.9144 C   0  0  0  0  0  0  0  0  0  0  0  0
    4.4327   -0.1374    0.0805 C   0  0  0  0  0  0  0  0  0  0  0  0
    5.7562   -0.6393    0.1631 C   0  0  0  0  0  0  0  0  0  0  0  0
   -6.5847   -0.5624   -0.1424 C   0  0  0  0  0  0  0  0  0  0  0  0
    6.5854    0.4229    0.4537 C   0  0  0  0  0  0  0  0  0  0  0  0
   -3.6191    0.5343   -1.8851 C   0  0  0  0  0  0  0  0  0  0  0  0
   -4.0998    1.2526    0.2849 C   0  0  0  0  0  0  0  0  0  0  0  0
   -6.8244    1.8394   -1.1007 C   0  0  0  0  0  0  0  0  0  0  0  0
    5.2733    3.6852    0.8533 C   0  0  0  0  0  0  0  0  0  0  0  0
    6.1293   -2.0219   -0.0291 C   0  0  0  0  0  0  0  0  0  0  0  0
   -6.0463   -1.8487   -0.1027 C   0  0  0  0  0  0  0  0  0  0  0  0
   -7.6320   -0.2181    0.7122 C   0  0  0  0  0  0  0  0  0  0  0  0
    5.5356   -2.9784   -0.8164 C   0  0  0  0  0  0  0  0  0  0  0  0
    7.2139   -2.6863    0.5742 C   0  0  0  0  0  0  0  0  0  0  0  0
   -6.5554   -2.7906    0.7912 C   0  0  0  0  0  0  0  0  0  0  0  0
   -8.1412   -1.1600    1.6061 C   0  0  0  0  0  0  0  0  0  0  0  0
   -7.6028   -2.4462    1.6456 C   0  0  0  0  0  0  0  0  0  0  0  0
    6.0339   -5.3928   -1.2671 C   0  0  0  0  0  0  0  0  0  0  0  0
    1.6457    0.0122   -0.1369 H   0  0  0  0  0  0  0  0  0  0  0  0
    2.4483    0.7848   -1.5418 H   0  0  0  0  0  0  0  0  0  0  0  0
    0.9551    3.7076    0.1992 H   0  0  0  0  0  0  0  0  0  0  0  0
    1.4921    3.1654    1.7958 H   0  0  0  0  0  0  0  0  0  0  0  0
    0.0987    0.3881   -1.9531 H   0  0  0  0  0  0  0  0  0  0  0  0
    0.4416    2.1260   -1.9797 H   0  0  0  0  0  0  0  0  0  0  0  0
   -0.8738    2.6875    1.4631 H   0  0  0  0  0  0  0  0  0  0  0  0
    0.0304    1.1813    1.6906 H   0  0  0  0  0  0  0  0  0  0  0  0
    3.5622   -0.7421   -0.1150 H   0  0  0  0  0  0  0  0  0  0  0  0
    7.6565    0.4776    0.5992 H   0  0  0  0  0  0  0  0  0  0  0  0
   -3.8585    0.1514   -2.8710 H   0  0  0  0  0  0  0  0  0  0  0  0
   -4.7610    1.4667    1.1185 H   0  0  0  0  0  0  0  0  0  0  0  0
   -6.4375    2.5452   -1.8482 H   0  0  0  0  0  0  0  0  0  0  0  0
   -6.7368    2.3405   -0.1291 H   0  0  0  0  0  0  0  0  0  0  0  0
   -7.8914    1.6975   -1.3143 H   0  0  0  0  0  0  0  0  0  0  0  0
   -7.3654   -0.1585   -2.5945 H   0  0  0  0  0  0  0  0  0  0  0  0
   -5.9312   -0.9357   -2.6662 H   0  0  0  0  0  0  0  0  0  0  0  0
    5.5530    4.7291    1.0708 H   0  0  0  0  0  0  0  0  0  0  0  0
   -5.2287   -2.1367   -0.7579 H   0  0  0  0  0  0  0  0  0  0  0  0
   -8.0850    0.7662    0.7303 H   0  0  0  0  0  0  0  0  0  0  0  0
    4.6736   -2.9489   -1.4696 H   0  0  0  0  0  0  0  0  0  0  0  0
    7.9444   -2.2995    1.2712 H   0  0  0  0  0  0  0  0  0  0  0  0
   -6.1361   -3.7919    0.8229 H   0  0  0  0  0  0  0  0  0  0  0  0
   -8.9556   -0.8927    2.2730 H   0  0  0  0  0  0  0  0  0  0  0  0
    6.9156   -5.6577   -1.8560 H   0  0  0  0  0  0  0  0  0  0  0  0
    5.8597   -6.1315   -0.4808 H   0  0  0  0  0  0  0  0  0  0  0  0
    5.1577   -5.3250   -1.9165 H   0  0  0  0  0  0  0  0  0  0  0  0
  1 36  1  0  0  0  0
  2 12  1  0  0  0  0
  2 13  1  0  0  0  0
  2 16  1  0  0  0  0
  3 14  1  0  0  0  0
  3 15  1  0  0  0  0
  3 17  1  0  0  0  0
  4  9  1  0  0  0  0
  4 18  1  0  0  0  0
  4 24  1  0  0  0  0
  5 16  2  0  0  0  0
  5 28  1  0  0  0  0
  6 17  2  0  0  0  0
  6 25  1  0  0  0  0
  7 17  1  0  0  0  0
  7 26  2  0  0  0  0
  8 19  1  0  0  0  0
  8 53  1  0  0  0  0
  8 54  1  0  0  0  0
  9 28  2  0  0  0  0
 10 11  1  0  0  0  0
 10 32  1  0  0  0  0
 10 37  1  0  0  0  0
 11 33  2  0  0  0  0
 12 14  1  0  0  0  0
 12 38  1  0  0  0  0
 12 39  1  0  0  0  0
 13 15  1  0  0  0  0
 13 40  1  0  0  0  0
 13 41  1  0  0  0  0
 14 42  1  0  0  0  0
 14 43  1  0  0  0  0
 15 44  1  0  0  0  0
 15 45  1  0  0  0  0
 16 18  1  0  0  0  0
 18 21  2  0  0  0  0
 19 20  1  0  0  0  0
 19 23  1  0  0  0  0
 19 27  1  0  0  0  0
 20 25  2  0  0  0  0
 20 26  1  0  0  0  0
 21 22  1  0  0  0  0
 21 46  1  0  0  0  0
 22 24  2  0  0  0  0
 22 29  1  0  0  0  0
 23 30  2  0  0  0  0
 23 31  1  0  0  0  0
 24 47  1  0  0  0  0
 25 48  1  0  0  0  0
 26 49  1  0  0  0  0
 27 50  1  0  0  0  0
 27 51  1  0  0  0  0
 27 52  1  0  0  0  0
 28 55  1  0  0  0  0
 29 32  2  0  0  0  0
 29 33  1  0  0  0  0
 30 34  1  0  0  0  0
 30 56  1  0  0  0  0
 31 35  2  0  0  0  0
 31 57  1  0  0  0  0
 32 58  1  0  0  0  0
 33 59  1  0  0  0  0
 34 36  2  0  0  0  0
 34 60  1  0  0  0  0
 35 36  1  0  0  0  0
 35 61  1  0  0  0  0
 37 62  1  0  0  0  0
 37 63  1  0  0  0  0
 37 64  1  0  0  0  0
M  END
> <PUBCHEM_COMPOUND_CID>
118023034

> <PUBCHEM_CONFORMER_RMSD>
1

> <PUBCHEM_CONFORMER_DIVERSEORDER>
1
49
23
55
12
20
21
8
47
27
39
31
28
14
52
22
3
54
29
26
10
40
4
13
35
18
6
51
53
46
16
48
36
24
5
44
7
33
43
19
38
32
15
50
25
42
30
45
34
9
37
41
11
17
2

> <PUBCHEM_MMFF94_PARTIAL_CHARGES>
47
1 -0.19
10 0.31
11 -0.71
12 0.37
13 0.37
14 0.37
15 0.37
16 0.58
17 0.72
18 -0.24
19 0.56
2 -0.79
20 -0.14
21 -0.15
23 -0.14
24 -0.3
25 0.16
26 0.16
28 0.6
3 -0.84
30 -0.15
31 -0.15
32 -0.3
33 0.14
34 -0.15
35 -0.15
36 0.19
37 0.26
4 0.51
46 0.15
47 0.15
48 0.15
49 0.15
5 -0.66
53 0.36
54 0.36
55 0.06
56 0.15
57 0.15
58 0.15
59 0.15
6 -0.62
60 0.15
61 0.15
7 -0.62
8 -0.99
9 -0.65

> <PUBCHEM_EFFECTIVE_ROTOR_COUNT>
6.2

> <PUBCHEM_PHARMACOPHORE_FEATURES>
13
1 11 acceptor
1 7 acceptor
1 8 cation
1 8 donor
3 2 5 16 cation
3 5 9 28 cation
4 3 6 7 17 cation
5 10 11 29 32 33 rings
5 4 18 21 22 24 rings
6 2 3 12 13 14 15 rings
6 23 30 31 34 35 36 rings
6 4 5 9 16 18 28 rings
6 6 7 17 20 25 26 rings

> <PUBCHEM_HEAVY_ATOM_COUNT>
37

> <PUBCHEM_ATOM_DEF_STEREO_COUNT>
1

> <PUBCHEM_ATOM_UDEF_STEREO_COUNT>
0

> <PUBCHEM_BOND_DEF_STEREO_COUNT>
0

> <PUBCHEM_BOND_UDEF_STEREO_COUNT>
0

> <PUBCHEM_ISOTOPIC_ATOM_COUNT>
0

> <PUBCHEM_COMPONENT_COUNT>
1

> <PUBCHEM_CACTVS_TAUTO_COUNT>
1

> <PUBCHEM_CONFORMER_ID>
0708E37A00000001

> <PUBCHEM_MMFF94_ENERGY>
110.9819

> <PUBCHEM_FEATURE_SELFOVERLAP>
66.212

> <PUBCHEM_SHAPE_FINGERPRINT>
10049733 31 17342399384272978990
10258705 36 18333739030757120395
10533779 47 18336558166175374955
10740516 88 18041857219855787291
11103572 155 18341332292375457583
11408170 108 18336266860520579355
11463208 1 18335428988608274139
117089 54 18055919788959961470
11828532 37 18260554407562751378
11991303 11 12612754648882272697
12107183 9 17770785615829349656
12144600 37 18408041814695223193
12173638 52 16626618426760232187
12342043 65 18335133164266568740
12539747 72 12823288018255084245
13008946 62 17538018239994355580
13533116 47 18342730815679677216
1361 4 18410853308354827754
13782708 43 18260543416092016157
13989917 61 18412262831540362650
14344974 204 18116720819255242643
14400156 162 18410301298780433883
14556957 393 13407062679220362687
15152005 304 18054797174413489302
15183329 4 17060337474437348373
15328684 2 16988570087001855467
15347591 1 18411420587673376152
15352257 5 18261109716462520977
15419008 91 17823957087394179429
15510800 12 18335701611888729650
15705408 1 13193670471566074376
15779827 34 18263385701602489851
16067689 302 18410016541520943355
16990366 60 18191015717592011082
16993089 31 18260830402129193127
16994733 274 11815893453268542767
19301679 30 18201158737784916152
19303781 99 18267006281775482870
19841028 212 18336262350049752514
20982279 24 18337968800138011850
21057603 40 18201998802907232454
21130935 74 18411983585266245265
21814621 53 18410002235375328889
23522609 53 17129594698543780201
23569943 247 17971469590315883186
24771750 20 17536602059853059700
34797466 226 17240482529063376012
3991529 202 18199764557003830723
4149490 64 18334849538085898592
44880568 143 17385997373613282813
45270241 37 18335706104551849516
49967989 163 15864644985079424409
5104073 3 16629391644477902417
6441014 3 17549541813358791526
9555976 147 16987722277490119648
9831232 110 18114179718395097086
999808 66 18408885157594263839

> <PUBCHEM_SHAPE_MULTIPOLES>
704.36
29.34
5.46
1.59
18.6
5.79
-0.21
25.87
6.66
-12.81
0.72
3.62
0.56
6.44

> <PUBCHEM_SHAPE_SELFOVERLAP>
1560.761

> <PUBCHEM_SHAPE_VOLUME>
378.6

> <PUBCHEM_COORDINATE_TYPE>
2
5
10

$$$$
11545920
  -OEChem-11282412143D

 54 57  0     0  0  0  0  0  0999 V2000
    6.2548   -3.5833   -0.6890 F   0  0  0  0  0  0  0  0  0  0  0  0
   -9.3088   -1.3501   -0.5453 O   0  0  0  0  0  0  0  0  0  0  0  0
    3.3204    0.6225   -1.1841 O   0  0  0  0  0  0  0  0  0  0  0  0
   -6.6705   -0.5050   -0.0717 N   0  0  0  0  0  0  0  0  0  0  0  0
    0.6088    2.3714   -0.2027 N   0  0  0  0  0  0  0  0  0  0  0  0
    5.0670    1.7745   -0.1782 N   0  0  0  0  0  0  0  0  0  0  0  0
   -7.0390   -1.9177    0.0947 C   0  0  0  0  0  0  0  0  0  0  0  0
   -7.5497    0.2700   -0.9538 C   0  0  0  0  0  0  0  0  0  0  0  0
   -8.5212   -2.0264    0.4345 C   0  0  0  0  0  0  0  0  0  0  0  0
   -9.0048    0.0442   -0.5585 C   0  0  0  0  0  0  0  0  0  0  0  0
   -5.3216   -0.1560    0.0506 C   0  0  0  0  0  0  0  0  0  0  0  0
   -4.6281    0.4485   -1.0172 C   0  0  0  0  0  0  0  0  0  0  0  0
   -4.6147   -0.3970    1.2459 C   0  0  0  0  0  0  0  0  0  0  0  0
   -2.6040    0.5491    0.2979 C   0  0  0  0  0  0  0  0  0  0  0  0
   -3.2831    0.7974   -0.8949 C   0  0  0  0  0  0  0  0  0  0  0  0
   -3.2697   -0.0480    1.3683 C   0  0  0  0  0  0  0  0  0  0  0  0
   -1.2083    0.9094    0.4238 C   0  0  0  0  0  0  0  0  0  0  0  0
   -0.3570    0.1874    1.2502 C   0  0  0  0  0  0  0  0  0  0  0  0
    1.4091    1.6464    0.6107 C   0  0  0  0  0  0  0  0  0  0  0  0
   -0.6840    1.9826   -0.2753 C   0  0  0  0  0  0  0  0  0  0  0  0
    2.8373    2.0711    0.6953 C   0  0  0  0  0  0  0  0  0  0  0  0
    0.9797    0.5568    1.3511 C   0  0  0  0  0  0  0  0  0  0  0  0
    6.1196    1.2711   -1.0290 C   0  0  0  0  0  0  0  0  0  0  0  0
    3.7392    1.4013   -0.3314 C   0  0  0  0  0  0  0  0  0  0  0  0
    6.7274    0.0106   -0.4850 C   0  0  0  0  0  0  0  0  0  0  0  0
    6.1962   -1.2212   -0.8486 C   0  0  0  0  0  0  0  0  0  0  0  0
    7.8145    0.0883    0.3776 C   0  0  0  0  0  0  0  0  0  0  0  0
    6.7604   -2.3922   -0.3427 C   0  0  0  0  0  0  0  0  0  0  0  0
    8.3787   -1.0827    0.8835 C   0  0  0  0  0  0  0  0  0  0  0  0
    7.8516   -2.3230    0.5233 C   0  0  0  0  0  0  0  0  0  0  0  0
   -6.8337   -2.4441   -0.8457 H   0  0  0  0  0  0  0  0  0  0  0  0
   -6.4592   -2.4053    0.8860 H   0  0  0  0  0  0  0  0  0  0  0  0
   -7.3306    1.3424   -0.8907 H   0  0  0  0  0  0  0  0  0  0  0  0
   -7.4001   -0.0582   -1.9898 H   0  0  0  0  0  0  0  0  0  0  0  0
   -8.7356   -1.6094    1.4260 H   0  0  0  0  0  0  0  0  0  0  0  0
   -8.8259   -3.0777    0.4437 H   0  0  0  0  0  0  0  0  0  0  0  0
   -9.6679    0.5266   -1.2836 H   0  0  0  0  0  0  0  0  0  0  0  0
   -9.2222    0.4738    0.4270 H   0  0  0  0  0  0  0  0  0  0  0  0
   -5.1202    0.6402   -1.9676 H   0  0  0  0  0  0  0  0  0  0  0  0
   -5.1187   -0.8452    2.0994 H   0  0  0  0  0  0  0  0  0  0  0  0
   -2.7962    1.2325   -1.7635 H   0  0  0  0  0  0  0  0  0  0  0  0
   -2.7886   -0.2322    2.3250 H   0  0  0  0  0  0  0  0  0  0  0  0
   -0.6840   -0.6840    1.8103 H   0  0  0  0  0  0  0  0  0  0  0  0
   -1.2822    2.6178   -0.9207 H   0  0  0  0  0  0  0  0  0  0  0  0
    3.2344    1.8728    1.6987 H   0  0  0  0  0  0  0  0  0  0  0  0
    2.9020    3.1558    0.5413 H   0  0  0  0  0  0  0  0  0  0  0  0
    1.6560   -0.0044    1.9870 H   0  0  0  0  0  0  0  0  0  0  0  0
    5.7255    1.1011   -2.0381 H   0  0  0  0  0  0  0  0  0  0  0  0
    6.8776    2.0582   -1.1146 H   0  0  0  0  0  0  0  0  0  0  0  0
    5.3221    2.4133    0.5696 H   0  0  0  0  0  0  0  0  0  0  0  0
    5.3492   -1.2900   -1.5249 H   0  0  0  0  0  0  0  0  0  0  0  0
    8.2317    1.0490    0.6662 H   0  0  0  0  0  0  0  0  0  0  0  0
    9.2280   -1.0290    1.5583 H   0  0  0  0  0  0  0  0  0  0  0  0
    8.2906   -3.2348    0.9171 H   0  0  0  0  0  0  0  0  0  0  0  0
  1 28  1  0  0  0  0
  2  9  1  0  0  0  0
  2 10  1  0  0  0  0
  3 24  2  0  0  0  0
  4  7  1  0  0  0  0
  4  8  1  0  0  0  0
  4 11  1  0  0  0  0
  5 19  2  0  0  0  0
  5 20  1  0  0  0  0
  6 23  1  0  0  0  0
  6 24  1  0  0  0  0
  6 50  1  0  0  0  0
  7  9  1  0  0  0  0
  7 31  1  0  0  0  0
  7 32  1  0  0  0  0
  8 10  1  0  0  0  0
  8 33  1  0  0  0  0
  8 34  1  0  0  0  0
  9 35  1  0  0  0  0
  9 36  1  0  0  0  0
 10 37  1  0  0  0  0
 10 38  1  0  0  0  0
 11 12  2  0  0  0  0
 11 13  1  0  0  0  0
 12 15  1  0  0  0  0
 12 39  1  0  0  0  0
 13 16  2  0  0  0  0
 13 40  1  0  0  0  0
 14 15  2  0  0  0  0
 14 16  1  0  0  0  0
 14 17  1  0  0  0  0
 15 41  1  0  0  0  0
 16 42  1  0  0  0  0
 17 18  1  0  0  0  0
 17 20  2  0  0  0  0
 18 22  2  0  0  0  0
 18 43  1  0  0  0  0
 19 21  1  0  0  0  0
 19 22  1  0  0  0  0
 20 44  1  0  0  0  0
 21 24  1  0  0  0  0
 21 45  1  0  0  0  0
 21 46  1  0  0  0  0
 22 47  1  0  0  0  0
 23 25  1  0  0  0  0
 23 48  1  0  0  0  0
 23 49  1  0  0  0  0
 25 26  2  0  0  0  0
 25 27  1  0  0  0  0
 26 28  1  0  0  0  0
 26 51  1  0  0  0  0
 27 29  2  0  0  0  0
 27 52  1  0  0  0  0
 28 30  2  0  0  0  0
 29 30  1  0  0  0  0
 29 53  1  0  0  0  0
 30 54  1  0  0  0  0
M  END
> <PUBCHEM_COMPOUND_CID>
11545920

> <PUBCHEM_CONFORMER_RMSD>
1

> <PUBCHEM_CONFORMER_DIVERSEORDER>
1
32
91
39
61
7
99
70
65
41
43
42
100
87
30
57
90
77
20
79
47
23
38
69
72
21
22
48
73
60
74
27
36
55
66
86
35
80
63
85
50
19
5
11
59
96
45
40
26
93
76
29
64
49
82
94
58
2
88
62
10
8
81
12
56
46
14
98
18
9
28
71
33
68
53
97
95
84
83
6
54
75
3
13
52
51
25
4
44
89
78
31
34
67
24
37
17
15
92
16

> <PUBCHEM_MMFF94_PARTIAL_CHARGES>
40
1 -0.19
10 0.28
11 0.1
12 -0.15
13 -0.15
15 -0.15
16 -0.15
18 -0.15
19 0.17
2 -0.56
20 0.16
21 0.2
22 -0.15
23 0.44
24 0.57
25 -0.14
26 -0.15
27 -0.15
28 0.19
29 -0.15
3 -0.57
30 -0.15
39 0.15
4 -0.84
40 0.15
41 0.15
42 0.15
43 0.15
44 0.15
47 0.15
5 -0.62
50 0.37
51 0.15
52 0.15
53 0.15
54 0.15
6 -0.73
7 0.37
8 0.37
9 0.28

> <PUBCHEM_EFFECTIVE_ROTOR_COUNT>
8.2

> <PUBCHEM_PHARMACOPHORE_FEATURES>
9
1 2 acceptor
1 3 acceptor
1 4 cation
1 5 acceptor
1 6 donor
6 11 12 13 14 15 16 rings
6 2 4 7 8 9 10 rings
6 25 26 27 28 29 30 rings
6 5 17 18 19 20 22 rings

> <PUBCHEM_HEAVY_ATOM_COUNT>
30

> <PUBCHEM_ATOM_DEF_STEREO_COUNT>
0

> <PUBCHEM_ATOM_UDEF_STEREO_COUNT>
0

> <PUBCHEM_BOND_DEF_STEREO_COUNT>
0

> <PUBCHEM_BOND_UDEF_STEREO_COUNT>
0

> <PUBCHEM_ISOTOPIC_ATOM_COUNT>
0

> <PUBCHEM_COMPONENT_COUNT>
1

> <PUBCHEM_CACTVS_TAUTO_COUNT>
5

> <PUBCHEM_CONFORMER_ID>
00B02D4000000001

> <PUBCHEM_MMFF94_ENERGY>
92.005

> <PUBCHEM_FEATURE_SELFOVERLAP>
45.672

> <PUBCHEM_SHAPE_FINGERPRINT>
10 15 11312057651455874277
10049733 168 17274833389792167206
10066227 49 18410575071884204767
10319688 67 14836402536372942821
106641 1 13110962037037963392
10670039 82 16588017979217174085
11135609 127 17386858373782013436
11386260 185 17240767336649696956
11408170 132 16733251366449864189
11578821 258 8430330030513029199
11973863 73 17988932141715753307
12082328 90 18411416194628032301
12539765 74 11314303940832281544
12838862 33 14620514502850573309
12838863 1 18188204279555971714
13008946 282 16486681593307284784
13150687 139 16588024610472430626
13383665 225 15502926408517701095
13383668 362 13110093470571095999
14202775 3 18262521524618533059
14216079 64 18410573981283901164
14251757 52 9367347024861938374
14251764 18 13183024038197633897
14347332 77 18338519634663800904
14537116 161 13334741228631148022
14617042 71 9943516436812900210
14849402 71 9151165455055695155
15064981 194 13407373879887189645
15152005 1 17908990907858990702
15183329 4 16805324362836737672
15198563 99 16805600318137130044
15326923 82 18113616799598683856
15461852 350 12973892533254448081
15510794 2 18187643639302723664
15706992 2 9007056902455742256
1754908 1 13973968714164487143
18393751 57 10807939245174856457
18603816 31 17774994744198752239
19301679 30 17703238304345206236
19841028 212 18339924810397654082
20105231 36 18114749330787631371
2026 5 18336544919869336770
20771845 140 16487257651785235614
21095123 145 12901553451698013177
21130935 74 18129102222089267114
21344244 246 18261109617837354090
21344244 78 15913333494430023912
21521239 73 18113901550901880944
21792934 111 13326579553469559363
21792961 116 17530965774390915297
22224240 67 11600010946715131509
23569943 247 18338520711998947066
23576562 1 15937264463802910303
3092352 35 12251900408201866665
33532 11 18413108381144641191
3418910 222 12540691497509818655
3711267 37 12757149069370742071
4169191 19 8142094165128641591
4258327 124 11963396245507482705
437795 160 13470678275078892661
439807 62 18411139142855264886
4403749 210 9727627311783204229
444735 82 9871753502831575338
504579 68 16298383582603659467
5470011 282 18114183081117496492
5718773 13 18410857638267437566
5758199 1 10375875173341031021
59682541 35 12247680496028471997
6081469 158 18186800283829835701
6438161 24 18412542115676843026
9689198 14 9439399138458175924
9937071 3 18408042931286688635
9953998 17 12391510897860975221
9962374 69 16988269980641649981

> <PUBCHEM_SHAPE_MULTIPOLES>
583.43
32.16
2.55
1.17
12.44
1.31
0.13
23.32
-5
-4.19
-0.21
0.06
-0.05
0.47

> <PUBCHEM_SHAPE_SELFOVERLAP>
1261.276

> <PUBCHEM_SHAPE_VOLUME>
320.6

> <PUBCHEM_COORDINATE_TYPE>
2
5
10

$$$$
24889392
  -OEChem-11282412143D

 72 77  0     0  0  0  0  0  0999 V2000
   -3.9018    2.2209   -0.8508 S   0  0  0  0  0  0  0  0  0  0  0  0
  -13.5102    0.3484    0.8507 O   0  0  0  0  0  0  0  0  0  0  0  0
   -7.5389   -1.5619   -0.7315 O   0  0  0  0  0  0  0  0  0  0  0  0
   10.1840   -1.5629   -0.2690 O   0  0  0  0  0  0  0  0  0  0  0  0
    5.9469   -0.9372   -0.4189 O   0  0  0  0  0  0  0  0  0  0  0  0
  -10.7908   -0.4587    0.6156 N   0  0  0  0  0  0  0  0  0  0  0  0
   -2.3590    0.1953   -0.3831 N   0  0  0  0  0  0  0  0  0  0  0  0
   -1.1232    2.0438   -0.5051 N   0  0  0  0  0  0  0  0  0  0  0  0
    8.8242   -1.2773   -0.2841 N   0  0  0  0  0  0  0  0  0  0  0  0
    7.4917    0.6369    0.3587 N   0  0  0  0  0  0  0  0  0  0  0  0
    5.2417    1.1586    0.3554 N   0  0  0  0  0  0  0  0  0  0  0  0
  -11.7078   -1.1135    1.5590 C   0  0  0  0  0  0  0  0  0  0  0  0
  -11.5404    0.0617   -0.5361 C   0  0  0  0  0  0  0  0  0  0  0  0
   -9.7468   -1.3840    0.1801 C   0  0  0  0  0  0  0  0  0  0  0  0
  -12.7952   -0.1332    1.9895 C   0  0  0  0  0  0  0  0  0  0  0  0
  -12.6310    1.0150   -0.0558 C   0  0  0  0  0  0  0  0  0  0  0  0
   12.3205   -0.6261    0.3121 C   0  0  0  0  0  0  0  0  0  0  0  0
   -8.5356   -0.6228   -0.3349 C   0  0  0  0  0  0  0  0  0  0  0  0
   10.8608   -0.4949    0.2253 C   0  0  0  0  0  0  0  0  0  0  0  0
   12.8389   -0.4751    1.7851 C   0  0  0  0  0  0  0  0  0  0  0  0
   13.0615    0.4626   -0.5403 C   0  0  0  0  0  0  0  0  0  0  0  0
   12.9256   -1.9938   -0.1816 C   0  0  0  0  0  0  0  0  0  0  0  0
   -3.6099   -0.4016   -0.4421 C   0  0  0  0  0  0  0  0  0  0  0  0
   -4.5940    0.5681   -0.6945 C   0  0  0  0  0  0  0  0  0  0  0  0
   -6.2391   -1.1610   -0.6377 C   0  0  0  0  0  0  0  0  0  0  0  0
   -2.3274    1.5439   -0.5725 C   0  0  0  0  0  0  0  0  0  0  0  0
   -5.9220    0.1933   -0.7945 C   0  0  0  0  0  0  0  0  0  0  0  0
   -3.8964   -1.7430   -0.2836 C   0  0  0  0  0  0  0  0  0  0  0  0
   -1.0858   -0.2296   -0.1755 C   0  0  0  0  0  0  0  0  0  0  0  0
    9.9782    0.5035    0.5426 C   0  0  0  0  0  0  0  0  0  0  0  0
   -0.3360    0.9331   -0.2559 C   0  0  0  0  0  0  0  0  0  0  0  0
   -5.2372   -2.1180   -0.3853 C   0  0  0  0  0  0  0  0  0  0  0  0
    8.7258   -0.0379    0.2051 C   0  0  0  0  0  0  0  0  0  0  0  0
    1.0850    0.9902   -0.1003 C   0  0  0  0  0  0  0  0  0  0  0  0
    1.8717   -0.1018   -0.4670 C   0  0  0  0  0  0  0  0  0  0  0  0
    1.6839    2.1387    0.4176 C   0  0  0  0  0  0  0  0  0  0  0  0
    3.8560    1.1030    0.2021 C   0  0  0  0  0  0  0  0  0  0  0  0
    3.2571   -0.0453   -0.3159 C   0  0  0  0  0  0  0  0  0  0  0  0
    3.0694    2.1952    0.5687 C   0  0  0  0  0  0  0  0  0  0  0  0
    6.2054    0.1673    0.0484 C   0  0  0  0  0  0  0  0  0  0  0  0
  -11.1648   -1.4494    2.4498 H   0  0  0  0  0  0  0  0  0  0  0  0
  -12.1706   -1.9916    1.0900 H   0  0  0  0  0  0  0  0  0  0  0  0
  -12.0023   -0.7630   -1.0948 H   0  0  0  0  0  0  0  0  0  0  0  0
  -10.8880    0.6111   -1.2219 H   0  0  0  0  0  0  0  0  0  0  0  0
  -10.1082   -2.1009   -0.5690 H   0  0  0  0  0  0  0  0  0  0  0  0
   -9.4027   -1.9969    1.0247 H   0  0  0  0  0  0  0  0  0  0  0  0
  -13.5133   -0.6371    2.6442 H   0  0  0  0  0  0  0  0  0  0  0  0
  -12.3782    0.7154    2.5454 H   0  0  0  0  0  0  0  0  0  0  0  0
  -12.2078    1.9026    0.4301 H   0  0  0  0  0  0  0  0  0  0  0  0
  -13.2285    1.3568   -0.9070 H   0  0  0  0  0  0  0  0  0  0  0  0
   -8.1753    0.0284    0.4732 H   0  0  0  0  0  0  0  0  0  0  0  0
   -8.7906   -0.0118   -1.2071 H   0  0  0  0  0  0  0  0  0  0  0  0
   13.9297   -0.5629    1.8413 H   0  0  0  0  0  0  0  0  0  0  0  0
   12.5600    0.5010    2.1989 H   0  0  0  0  0  0  0  0  0  0  0  0
   12.4000   -1.2451    2.4302 H   0  0  0  0  0  0  0  0  0  0  0  0
   14.1502    0.3658   -0.4623 H   0  0  0  0  0  0  0  0  0  0  0  0
   12.7857    0.3793   -1.5980 H   0  0  0  0  0  0  0  0  0  0  0  0
   12.7904    1.4710   -0.2065 H   0  0  0  0  0  0  0  0  0  0  0  0
   14.0169   -2.0143   -0.0854 H   0  0  0  0  0  0  0  0  0  0  0  0
   12.5180   -2.8286    0.4002 H   0  0  0  0  0  0  0  0  0  0  0  0
   12.6743   -2.1696   -1.2339 H   0  0  0  0  0  0  0  0  0  0  0  0
   -6.6689    0.9480   -1.0164 H   0  0  0  0  0  0  0  0  0  0  0  0
   -3.1293   -2.4832   -0.0892 H   0  0  0  0  0  0  0  0  0  0  0  0
   -0.8331   -1.2652    0.0090 H   0  0  0  0  0  0  0  0  0  0  0  0
   10.2082    1.4749    0.9554 H   0  0  0  0  0  0  0  0  0  0  0  0
   -5.5083   -3.1644   -0.2672 H   0  0  0  0  0  0  0  0  0  0  0  0
    1.4380   -1.0067   -0.8856 H   0  0  0  0  0  0  0  0  0  0  0  0
    1.0906    3.0005    0.7139 H   0  0  0  0  0  0  0  0  0  0  0  0
    7.5693    1.5749    0.7430 H   0  0  0  0  0  0  0  0  0  0  0  0
    3.7957   -0.9295   -0.6254 H   0  0  0  0  0  0  0  0  0  0  0  0
    3.5229    3.0959    0.9747 H   0  0  0  0  0  0  0  0  0  0  0  0
    5.6048    2.0277    0.7392 H   0  0  0  0  0  0  0  0  0  0  0  0
  1 24  1  0  0  0  0
  1 26  1  0  0  0  0
  2 15  1  0  0  0  0
  2 16  1  0  0  0  0
  3 18  1  0  0  0  0
  3 25  1  0  0  0  0
  4  9  1  0  0  0  0
  4 19  1  0  0  0  0
  5 40  2  0  0  0  0
  6 12  1  0  0  0  0
  6 13  1  0  0  0  0
  6 14  1  0  0  0  0
  7 23  1  0  0  0  0
  7 26  1  0  0  0  0
  7 29  1  0  0  0  0
  8 26  2  0  0  0  0
  8 31  1  0  0  0  0
  9 33  2  0  0  0  0
 10 33  1  0  0  0  0
 10 40  1  0  0  0  0
 10 69  1  0  0  0  0
 11 37  1  0  0  0  0
 11 40  1  0  0  0  0
 11 72  1  0  0  0  0
 12 15  1  0  0  0  0
 12 41  1  0  0  0  0
 12 42  1  0  0  0  0
 13 16  1  0  0  0  0
 13 43  1  0  0  0  0
 13 44  1  0  0  0  0
 14 18  1  0  0  0  0
 14 45  1  0  0  0  0
 14 46  1  0  0  0  0
 15 47  1  0  0  0  0
 15 48  1  0  0  0  0
 16 49  1  0  0  0  0
 16 50  1  0  0  0  0
 17 19  1  0  0  0  0
 17 20  1  0  0  0  0
 17 21  1  0  0  0  0
 17 22  1  0  0  0  0
 18 51  1  0  0  0  0
 18 52  1  0  0  0  0
 19 30  2  0  0  0  0
 20 53  1  0  0  0  0
 20 54  1  0  0  0  0
 20 55  1  0  0  0  0
 21 56  1  0  0  0  0
 21 57  1  0  0  0  0
 21 58  1  0  0  0  0
 22 59  1  0  0  0  0
 22 60  1  0  0  0  0
 22 61  1  0  0  0  0
 23 24  2  0  0  0  0
 23 28  1  0  0  0  0
 24 27  1  0  0  0  0
 25 27  2  0  0  0  0
 25 32  1  0  0  0  0
 27 62  1  0  0  0  0
 28 32  2  0  0  0  0
 28 63  1  0  0  0  0
 29 31  2  0  0  0  0
 29 64  1  0  0  0  0
 30 33  1  0  0  0  0
 30 65  1  0  0  0  0
 31 34  1  0  0  0  0
 32 66  1  0  0  0  0
 34 35  2  0  0  0  0
 34 36  1  0  0  0  0
 35 38  1  0  0  0  0
 35 67  1  0  0  0  0
 36 39  2  0  0  0  0
 36 68  1  0  0  0  0
 37 38  2  0  0  0  0
 37 39  1  0  0  0  0
 38 70  1  0  0  0  0
 39 71  1  0  0  0  0
M  END
> <PUBCHEM_COMPOUND_CID>
24889392

> <PUBCHEM_CONFORMER_RMSD>
1.2

> <PUBCHEM_CONFORMER_DIVERSEORDER>
1
31
4
27
24
32
5
10
15
13
11
26
17
23
30
14
3
20
9
25
29
18
21
19
22
8
12
34
6
2
16
7
33
28

> <PUBCHEM_MMFF94_PARTIAL_CHARGES>
48
1 -0.16
10 -0.49
11 -0.55
12 0.27
13 0.27
14 0.27
15 0.28
16 0.28
17 0.18
18 0.28
19 -0.04
2 -0.56
23 -0.02
24 0.1
25 0.08
26 0.24
27 -0.15
28 -0.15
29 -0.3
3 -0.36
30 -0.15
31 0.17
32 -0.15
33 0.35
34 0.05
35 -0.15
36 -0.15
37 0.12
38 -0.15
39 -0.15
4 -0.02
40 0.69
5 -0.57
6 -0.81
62 0.15
63 0.15
64 0.15
65 0.15
66 0.15
67 0.15
68 0.15
69 0.37
7 0.33
70 0.15
71 0.15
72 0.37
8 -0.57
9 -0.41

> <PUBCHEM_EFFECTIVE_ROTOR_COUNT>
11.2

> <PUBCHEM_PHARMACOPHORE_FEATURES>
14
1 10 donor
1 11 donor
1 2 acceptor
1 3 acceptor
1 5 acceptor
1 6 cation
3 7 8 26 cation
4 17 20 21 22 hydrophobe
5 1 7 23 24 26 rings
5 4 9 19 30 33 rings
5 7 8 26 29 31 rings
6 2 6 12 13 15 16 rings
6 23 24 25 27 28 32 rings
6 34 35 36 37 38 39 rings

> <PUBCHEM_HEAVY_ATOM_COUNT>
40

> <PUBCHEM_ATOM_DEF_STEREO_COUNT>
0

> <PUBCHEM_ATOM_UDEF_STEREO_COUNT>
0

> <PUBCHEM_BOND_DEF_STEREO_COUNT>
0

> <PUBCHEM_BOND_UDEF_STEREO_COUNT>
0

> <PUBCHEM_ISOTOPIC_ATOM_COUNT>
0

> <PUBCHEM_COMPONENT_COUNT>
1

> <PUBCHEM_CACTVS_TAUTO_COUNT>
5

> <PUBCHEM_CONFORMER_ID>
017BC83000000001

> <PUBCHEM_MMFF94_ENERGY>
107.8924

> <PUBCHEM_FEATURE_SELFOVERLAP>
71.414

> <PUBCHEM_SHAPE_FINGERPRINT>
10580692 12 18272089370784389505
11061554 47 11167954550014426595
11476731 38 17458343035217506091
12498461 61 17917706959759212223
12664476 115 15841834448161748401
12741549 16 17418374705390664105
14251920 1 18410573980856483854
14251920 17 8574711299589377571
14344974 52 7853570206392004919
15061470 23 14117802414394444019
15065858 18 18340760465747742500
15145343 6 17917988387612400568
15219723 13 18409450294077143851
15247644 1 17530683208461077810
15274700 256 17632578245853351681
15343295 29 8790888476920995424
15510794 2 18343018875368253982
155225 1 9151175364072176678
16067689 302 18130790015419965862
16728433 110 18410853292051269068
20105231 36 17895195541659495043
20501277 279 18202002131332001459
20580484 106 17561363977301998843
21057603 192 18343018845267806617
21057603 43 16629977524882157079
232437 2 18411697687174449782
23569917 315 18119245319786350063
3092352 35 15791730801946368747
44389302 135 17775566442594509918
4874694 18 11024110962358271317
54039377 194 18412823595523774556
57828716 72 11527951137111979971
57828716 8 17561075957180817031
59521270 166 18114174212974985165
636775 8 17967814972146441067
6673363 416 11674868997597187503
67123 10 18409164412653137748
9663363 56 14979958073188522219
9980921 7 10447931668004137371

> <PUBCHEM_SHAPE_MULTIPOLES>
773.67
65.82
1.93
1.04
27.66
0.28
0.41
-24.95
19.97
-0.21
-0.17
-1.53
-0.08
0.8

> <PUBCHEM_SHAPE_SELFOVERLAP>
1673.081

> <PUBCHEM_SHAPE_VOLUME>
431.5

> <PUBCHEM_COORDINATE_TYPE>
2
5
10

$$$$
5280961
  -OEChem-11282412143D

 30 32  0     0  0  0  0  0  0999 V2000
    1.2051    2.0344   -0.0191 O   0  0  0  0  0  0  0  0  0  0  0  0
    2.3770   -2.6680   -0.0009 O   0  0  0  0  0  0  0  0  0  0  0  0
   -0.0855   -1.8360   -0.0685 O   0  0  0  0  0  0  0  0  0  0  0  0
    5.7528    0.6696    0.0402 O   0  0  0  0  0  0  0  0  0  0  0  0
   -6.2316   -0.2771    0.0415 O   0  0  0  0  0  0  0  0  0  0  0  0
    1.7278   -0.3357   -0.0110 C   0  0  0  0  0  0  0  0  0  0  0  0
   -0.6569    0.4751   -0.0269 C   0  0  0  0  0  0  0  0  0  0  0  0
    2.1110    1.0050   -0.0063 C   0  0  0  0  0  0  0  0  0  0  0  0
    0.2923   -0.6720   -0.0338 C   0  0  0  0  0  0  0  0  0  0  0  0
   -2.1156    0.2792   -0.0089 C   0  0  0  0  0  0  0  0  0  0  0  0
    2.6957   -1.3435    0.0017 C   0  0  0  0  0  0  0  0  0  0  0  0
   -0.1296    1.7087   -0.0190 C   0  0  0  0  0  0  0  0  0  0  0  0
    3.4639    1.3457    0.0107 C   0  0  0  0  0  0  0  0  0  0  0  0
    4.0482   -1.0002    0.0194 C   0  0  0  0  0  0  0  0  0  0  0  0
    4.4317    0.3413    0.0237 C   0  0  0  0  0  0  0  0  0  0  0  0
   -2.8266    0.2009   -1.2082 C   0  0  0  0  0  0  0  0  0  0  0  0
   -2.7928    0.1698    1.2074 C   0  0  0  0  0  0  0  0  0  0  0  0
   -4.2089    0.0143   -1.1914 C   0  0  0  0  0  0  0  0  0  0  0  0
   -4.1749   -0.0169    1.2242 C   0  0  0  0  0  0  0  0  0  0  0  0
   -4.8831   -0.0945    0.0249 C   0  0  0  0  0  0  0  0  0  0  0  0
   -0.7215    2.6158   -0.0091 H   0  0  0  0  0  0  0  0  0  0  0  0
    3.7649    2.3903    0.0139 H   0  0  0  0  0  0  0  0  0  0  0  0
    4.8016   -1.7845    0.0296 H   0  0  0  0  0  0  0  0  0  0  0  0
   -2.3152    0.2826   -2.1644 H   0  0  0  0  0  0  0  0  0  0  0  0
   -2.2551    0.2272    2.1508 H   0  0  0  0  0  0  0  0  0  0  0  0
   -4.7488   -0.0450   -2.1326 H   0  0  0  0  0  0  0  0  0  0  0  0
   -4.6946   -0.1015    2.1747 H   0  0  0  0  0  0  0  0  0  0  0  0
    1.4152   -2.7879    0.0091 H   0  0  0  0  0  0  0  0  0  0  0  0
    6.2809   -0.1471    0.0473 H   0  0  0  0  0  0  0  0  0  0  0  0
   -6.5567   -0.3074   -0.8746 H   0  0  0  0  0  0  0  0  0  0  0  0
  1  8  1  0  0  0  0
  1 12  1  0  0  0  0
  2 11  1  0  0  0  0
  2 28  1  0  0  0  0
  3  9  2  0  0  0  0
  4 15  1  0  0  0  0
  4 29  1  0  0  0  0
  5 20  1  0  0  0  0
  5 30  1  0  0  0  0
  6  8  1  0  0  0  0
  6  9  1  0  0  0  0
  6 11  2  0  0  0  0
  7  9  1  0  0  0  0
  7 10  1  0  0  0  0
  7 12  2  0  0  0  0
  8 13  2  0  0  0  0
 10 16  2  0  0  0  0
 10 17  1  0  0  0  0
 11 14  1  0  0  0  0
 12 21  1  0  0  0  0
 13 15  1  0  0  0  0
 13 22  1  0  0  0  0
 14 15  2  0  0  0  0
 14 23  1  0  0  0  0
 16 18  1  0  0  0  0
 16 24  1  0  0  0  0
 17 19  2  0  0  0  0
 17 25  1  0  0  0  0
 18 20  2  0  0  0  0
 18 26  1  0  0  0  0
 19 20  1  0  0  0  0
 19 27  1  0  0  0  0
M  END
> <PUBCHEM_COMPOUND_CID>
5280961

> <PUBCHEM_CONFORMER_RMSD>
0.6

> <PUBCHEM_CONFORMER_DIVERSEORDER>
1
2

> <PUBCHEM_MMFF94_PARTIAL_CHARGES>
30
1 -0.16
10 0.03
11 0.08
12 -0.07
13 -0.15
14 -0.15
15 0.08
16 -0.15
17 -0.15
18 -0.15
19 -0.15
2 -0.53
20 0.08
21 0.15
22 0.15
23 0.15
24 0.15
25 0.15
26 0.15
27 0.15
28 0.45
29 0.45
3 -0.57
30 0.45
4 -0.53
5 -0.53
6 0.09
7 -0.01
8 0.08
9 0.47

> <PUBCHEM_EFFECTIVE_ROTOR_COUNT>
1

> <PUBCHEM_PHARMACOPHORE_FEATURES>
8
1 1 acceptor
1 2 donor
1 3 acceptor
1 4 donor
1 5 donor
6 1 6 7 8 9 12 rings
6 10 16 17 18 19 20 rings
6 6 8 11 13 14 15 rings

> <PUBCHEM_HEAVY_ATOM_COUNT>
20

> <PUBCHEM_ATOM_DEF_STEREO_COUNT>
0

> <PUBCHEM_ATOM_UDEF_STEREO_COUNT>
0

> <PUBCHEM_BOND_DEF_STEREO_COUNT>
0

> <PUBCHEM_BOND_UDEF_STEREO_COUNT>
0

> <PUBCHEM_ISOTOPIC_ATOM_COUNT>
0

> <PUBCHEM_COMPONENT_COUNT>
1

> <PUBCHEM_CACTVS_TAUTO_COUNT>
24

> <PUBCHEM_CONFORMER_ID>
005094C100000001

> <PUBCHEM_MMFF94_ENERGY>
62.2288

> <PUBCHEM_FEATURE_SELFOVERLAP>
40.625

> <PUBCHEM_SHAPE_FINGERPRINT>
10 15 17968651735852241568
11471102 20 18410011039915055268
11796584 16 16298104272158585042
12011746 2 18408891737046259404
12107183 9 17481158795205446827
12236239 1 17775568632984956433
12596602 18 17346595322179823779
13140716 1 18194963165723870696
13836976 161 18334862748893370556
13862211 1 18410853231726210242
14386348 63 17894634751351534131
15196674 1 18338798901320010860
15375358 24 18040718064813932202
15375462 189 18131630071354825257
15788980 27 15936413342343465497
15961568 22 15936980763574484908
16945 1 18410855465014102696
1813 80 18271540705560145676
19489759 90 16153423943970350949
200 152 18343862212954338993
20279233 1 17821452352412486003
20645477 70 18335980874408649870
21033648 29 18114445830026487037
21065198 48 17988931015991034643
21267235 1 18339929225607664382
21641784 216 18042422273963395132
22224240 67 18342450487532548904
23402539 116 17775565342486457572
23536379 177 15841559565638082980
23557571 272 17095518474807470397
23559900 14 16950281750432500898
26918003 58 18260551134301111081
2748010 2 18121775029009032932
2871803 45 18334013852823096778
335352 9 18411139165358697628
33824 294 18408039594149944154
34797466 226 16226060980367338734
34934 24 18409725188361700594
3545911 37 18410293635509107947
4072396 5 18262223474792275538
42630746 31 18413672409272107838
4340502 62 16949999236168377650
474 4 17772457134984702568
5104073 3 18265892467099301696
542803 24 17418095416598888849
602551 16 16226338113105518851
7495541 125 17095532836967104597
77492 1 17703790323495757877

> <PUBCHEM_SHAPE_MULTIPOLES>
382.24
11.31
1.69
0.91
4.74
0.43
0.01
0.27
0.19
-1.88
-0.02
1.1
-0.03
0.03

> <PUBCHEM_SHAPE_SELFOVERLAP>
856.838

> <PUBCHEM_SHAPE_VOLUME>
201.4

> <PUBCHEM_COORDINATE_TYPE>
2
5
10

$$$$
151194
  -OEChem-11282412143D

 40 43  0     0  0  0  0  0  0999 V2000
    6.4826   -3.0002   -0.5588 Cl  0  0  0  0  0  0  0  0  0  0  0  0
    2.1996    0.9390    0.5350 N   0  0  0  0  0  0  0  0  0  0  0  0
   -1.1473   -0.3861    0.2273 N   0  0  0  0  0  0  0  0  0  0  0  0
    0.1971   -0.3006    0.4088 N   0  0  0  0  0  0  0  0  0  0  0  0
   -4.5517   -3.5610    0.1546 N   0  0  0  0  0  0  0  0  0  0  0  0
   -1.2768    2.0001   -0.1033 C   0  0  0  0  0  0  0  0  0  0  0  0
    0.1106    2.0884    0.0847 C   0  0  0  0  0  0  0  0  0  0  0  0
   -1.8543    0.7378   -0.0210 C   0  0  0  0  0  0  0  0  0  0  0  0
   -3.3218    0.5294   -0.2042 C   0  0  0  0  0  0  0  0  0  0  0  0
    0.7985    0.9068    0.3378 C   0  0  0  0  0  0  0  0  0  0  0  0
   -2.0187    3.1647   -0.3620 C   0  0  0  0  0  0  0  0  0  0  0  0
   -3.7557   -0.9162   -0.0775 C   0  0  0  0  0  0  0  0  0  0  0  0
    0.7433    3.3409    0.0122 C   0  0  0  0  0  0  0  0  0  0  0  0
   -1.3808    4.4039   -0.4321 C   0  0  0  0  0  0  0  0  0  0  0  0
   -0.0024    4.4918   -0.2453 C   0  0  0  0  0  0  0  0  0  0  0  0
    3.2164    0.0049    0.2745 C   0  0  0  0  0  0  0  0  0  0  0  0
   -4.1182   -1.4055    1.1596 C   0  0  0  0  0  0  0  0  0  0  0  0
   -3.7807   -1.7141   -1.2017 C   0  0  0  0  0  0  0  0  0  0  0  0
    4.3640   -0.0252    1.0715 C   0  0  0  0  0  0  0  0  0  0  0  0
    3.0852   -0.9004   -0.7820 C   0  0  0  0  0  0  0  0  0  0  0  0
   -4.5083   -2.7335    1.2227 C   0  0  0  0  0  0  0  0  0  0  0  0
   -4.1858   -3.0284   -1.0328 C   0  0  0  0  0  0  0  0  0  0  0  0
    5.3730   -0.9532    0.8137 C   0  0  0  0  0  0  0  0  0  0  0  0
    4.0941   -1.8285   -1.0396 C   0  0  0  0  0  0  0  0  0  0  0  0
    5.2380   -1.8549   -0.2420 C   0  0  0  0  0  0  0  0  0  0  0  0
   -3.6268    0.8976   -1.1928 H   0  0  0  0  0  0  0  0  0  0  0  0
   -3.8747    1.1235    0.5355 H   0  0  0  0  0  0  0  0  0  0  0  0
   -3.0944    3.1390   -0.5134 H   0  0  0  0  0  0  0  0  0  0  0  0
    1.8159    3.4553    0.1435 H   0  0  0  0  0  0  0  0  0  0  0  0
    2.4945    1.6899    1.1533 H   0  0  0  0  0  0  0  0  0  0  0  0
   -1.9591    5.3012   -0.6330 H   0  0  0  0  0  0  0  0  0  0  0  0
    0.4919    5.4574   -0.3021 H   0  0  0  0  0  0  0  0  0  0  0  0
   -4.1025   -0.7918    2.0530 H   0  0  0  0  0  0  0  0  0  0  0  0
   -3.4974   -1.3454   -2.1809 H   0  0  0  0  0  0  0  0  0  0  0  0
    4.4822    0.6709    1.8984 H   0  0  0  0  0  0  0  0  0  0  0  0
    2.2099   -0.8920   -1.4262 H   0  0  0  0  0  0  0  0  0  0  0  0
   -4.8052   -3.1809    2.1657 H   0  0  0  0  0  0  0  0  0  0  0  0
   -4.2272   -3.7094   -1.8765 H   0  0  0  0  0  0  0  0  0  0  0  0
    6.2586   -0.9624    1.4439 H   0  0  0  0  0  0  0  0  0  0  0  0
    3.9766   -2.5235   -1.8671 H   0  0  0  0  0  0  0  0  0  0  0  0
  1 25  1  0  0  0  0
  2 10  1  0  0  0  0
  2 16  1  0  0  0  0
  2 30  1  0  0  0  0
  3  4  1  0  0  0  0
  3  8  2  0  0  0  0
  4 10  2  0  0  0  0
  5 21  2  0  0  0  0
  5 22  1  0  0  0  0
  6  7  1  0  0  0  0
  6  8  1  0  0  0  0
  6 11  2  0  0  0  0
  7 10  1  0  0  0  0
  7 13  2  0  0  0  0
  8  9  1  0  0  0  0
  9 12  1  0  0  0  0
  9 26  1  0  0  0  0
  9 27  1  0  0  0  0
 11 14  1  0  0  0  0
 11 28  1  0  0  0  0
 12 17  2  0  0  0  0
 12 18  1  0  0  0  0
 13 15  1  0  0  0  0
 13 29  1  0  0  0  0
 14 15  2  0  0  0  0
 14 31  1  0  0  0  0
 15 32  1  0  0  0  0
 16 19  2  0  0  0  0
 16 20  1  0  0  0  0
 17 21  1  0  0  0  0
 17 33  1  0  0  0  0
 18 22  2  0  0  0  0
 18 34  1  0  0  0  0
 19 23  1  0  0  0  0
 19 35  1  0  0  0  0
 20 24  2  0  0  0  0
 20 36  1  0  0  0  0
 21 37  1  0  0  0  0
 22 38  1  0  0  0  0
 23 25  2  0  0  0  0
 23 39  1  0  0  0  0
 24 25  1  0  0  0  0
 24 40  1  0  0  0  0
M  END
> <PUBCHEM_COMPOUND_CID>
151194

> <PUBCHEM_CONFORMER_RMSD>
0.8

> <PUBCHEM_CONFORMER_DIVERSEORDER>
1
33
31
28
6
27
20
21
9
15
22
16
25
18
13
29
26
2
17
11
24
12
32
30
14
3
19
23
8
10
4
7
5

> <PUBCHEM_MMFF94_PARTIAL_CHARGES>
36
1 -0.18
10 0.41
11 -0.15
12 -0.14
13 -0.15
14 -0.15
15 -0.15
16 0.1
17 -0.15
18 -0.15
19 -0.15
2 -0.6
20 -0.15
21 0.16
22 0.16
23 -0.15
24 -0.15
25 0.18
28 0.15
29 0.15
3 -0.31
30 0.4
31 0.15
32 0.15
33 0.15
34 0.15
35 0.15
36 0.15
37 0.15
38 0.15
39 0.15
4 -0.31
40 0.15
5 -0.62
8 0.17
9 0.29

> <PUBCHEM_EFFECTIVE_ROTOR_COUNT>
4

> <PUBCHEM_PHARMACOPHORE_FEATURES>
8
1 2 donor
1 3 acceptor
1 5 acceptor
3 2 4 10 cation
6 16 19 20 23 24 25 rings
6 3 4 6 7 8 10 rings
6 5 12 17 18 21 22 rings
6 6 7 11 13 14 15 rings

> <PUBCHEM_HEAVY_ATOM_COUNT>
25

> <PUBCHEM_ATOM_DEF_STEREO_COUNT>
0

> <PUBCHEM_ATOM_UDEF_STEREO_COUNT>
0

> <PUBCHEM_BOND_DEF_STEREO_COUNT>
0

> <PUBCHEM_BOND_UDEF_STEREO_COUNT>
0

> <PUBCHEM_ISOTOPIC_ATOM_COUNT>
0

> <PUBCHEM_COMPONENT_COUNT>
1

> <PUBCHEM_CACTVS_TAUTO_COUNT>
2

> <PUBCHEM_CONFORMER_ID>
00024E9A00000001

> <PUBCHEM_MMFF94_ENERGY>
90.6708

> <PUBCHEM_FEATURE_SELFOVERLAP>
40.624

> <PUBCHEM_SHAPE_FINGERPRINT>
10254770 206 16388733399591773770
10411042 1 18409731793868258659
11056379 131 18265616472796051156
11809386 21 18191020106726561050
12107183 9 18341066194077557787
12363563 72 18335989752132197187
12403259 226 18342731906405951584
12422481 6 17489593350576253414
12788726 201 18261398845155686874
13140716 1 18411138060972646337
13690498 29 18270413689742404638
13782708 43 18131349662527620702
138480 1 15384152432993348029
13899415 180 18337663217440595487
13955234 65 17691692603208851865
14844126 61 18264492784549368555
14863182 85 17904761433727346444
14866123 147 18339646612485687113
14950920 106 16200425913952814090
15042514 8 18338239262992376033
15230672 131 17544763331408236006
15250474 111 17899408698028466714
17492 89 18122906697215592723
17539 30 18337665309216788933
17859628 70 17832710449827884865
1813 80 18270131222021248855
18927931 339 18339083683448121366
19141452 34 18272092647860416665
19246450 95 10878053886977471262
19427546 20 18262243201392969428
20101258 96 18409736144617466681
20505436 4 17245559867527922000
21065201 7 18195236729629025232
21307412 95 18339916027109724535
21796203 349 17976855225485342938
22122407 14 15769766931842363161
22849339 104 17980213993258951428
22950370 63 18410301344927762611
23557571 272 18198623233621462260
23559900 14 17982724174716980392
3103668 31 18188762848384190893
3421961 26 18195245744222339705
4073 2 18196932172438362970
44062 13 18196091037089286662
4409770 3 18191023396587074805
463206 1 18260831548263423875
5104073 3 18201432516348583586
5309563 4 18410575119213468395
59755656 520 17832138329771854868
613672 6 18265594628218207707
6669772 16 17474963498086910748
6673363 416 18339938086917046068
6700243 42 17770256832456215772
7399639 24 18128517414899947496
7970288 3 18338515347474445955

> <PUBCHEM_SHAPE_MULTIPOLES>
496.43
12.41
5.65
1.03
14.61
4.54
0.03
-17.73
0.05
-5.11
-0.93
-0.18
-0.59
1.23

> <PUBCHEM_SHAPE_SELFOVERLAP>
1091.822

> <PUBCHEM_SHAPE_VOLUME>
265.9

> <PUBCHEM_COORDINATE_TYPE>
2
5
10

$$$$
1401
  -OEChem-11282412143D

 79 81  0     0  0  0  0  0  0999 V2000
   -0.5549    2.7403    0.1137 O   0  0  0  0  0  0  0  0  0  0  0  0
   -6.7473   -1.1515    2.2880 O   0  0  0  0  0  0  0  0  0  0  0  0
   -6.6541   -1.0350   -2.4828 O   0  0  0  0  0  0  0  0  0  0  0  0
    9.0904    0.6015    0.2879 N   0  0  0  0  0  0  0  0  0  0  0  0
    3.6401   -2.3885    0.0731 N   0  0  0  0  0  0  0  0  0  0  0  0
   -2.7407    3.4922    0.0900 N   0  0  0  0  0  0  0  0  0  0  0  0
   -2.3470    1.2219    0.0436 N   0  0  0  0  0  0  0  0  0  0  0  0
    1.6371   -1.2078    0.0627 N   0  0  0  0  0  0  0  0  0  0  0  0
   -0.3545   -0.0267    0.0523 N   0  0  0  0  0  0  0  0  0  0  0  0
    1.6729   -3.6150    0.0056 N   0  0  0  0  0  0  0  0  0  0  0  0
    8.2745   -0.6058    0.2301 C   0  0  0  0  0  0  0  0  0  0  0  0
    6.7909   -0.2418    0.1837 C   0  0  0  0  0  0  0  0  0  0  0  0
    5.9159   -1.4988    0.1321 C   0  0  0  0  0  0  0  0  0  0  0  0
    9.2314    1.1923   -1.0441 C   0  0  0  0  0  0  0  0  0  0  0  0
   10.4076    0.3069    0.8546 C   0  0  0  0  0  0  0  0  0  0  0  0
    4.4239   -1.1777    0.1171 C   0  0  0  0  0  0  0  0  0  0  0  0
   -2.4325    4.9032    0.1293 C   0  0  0  0  0  0  0  0  0  0  0  0
   10.0243    2.4872   -0.9891 C   0  0  0  0  0  0  0  0  0  0  0  0
   11.1749   -0.6712   -0.0189 C   0  0  0  0  0  0  0  0  0  0  0  0
   -1.6414    5.2077    1.4058 C   0  0  0  0  0  0  0  0  0  0  0  0
   -3.7376    5.7073    0.1235 C   0  0  0  0  0  0  0  0  0  0  0  0
   -1.5956    5.2736   -1.1006 C   0  0  0  0  0  0  0  0  0  0  0  0
    2.2544   -2.4079    0.0457 C   0  0  0  0  0  0  0  0  0  0  0  0
   -2.4814   -1.1700   -0.0168 C   0  0  0  0  0  0  0  0  0  0  0  0
   -1.7093   -0.0285    0.0259 C   0  0  0  0  0  0  0  0  0  0  0  0
   -1.7587    2.4963    0.0851 C   0  0  0  0  0  0  0  0  0  0  0  0
   -0.4118   -2.4011   -0.0061 C   0  0  0  0  0  0  0  0  0  0  0  0
    0.2996   -1.1962    0.0367 C   0  0  0  0  0  0  0  0  0  0  0  0
   -1.8140   -2.3821   -0.0330 C   0  0  0  0  0  0  0  0  0  0  0  0
   -3.9285   -1.1441   -0.0444 C   0  0  0  0  0  0  0  0  0  0  0  0
    0.3302   -3.5797   -0.0199 C   0  0  0  0  0  0  0  0  0  0  0  0
   -4.6021   -1.1018   -1.2651 C   0  0  0  0  0  0  0  0  0  0  0  0
   -4.6492   -1.1608    1.1496 C   0  0  0  0  0  0  0  0  0  0  0  0
   -6.0437   -1.1352    1.1230 C   0  0  0  0  0  0  0  0  0  0  0  0
   -5.9965   -1.0762   -1.2917 C   0  0  0  0  0  0  0  0  0  0  0  0
   -6.7172   -1.0929   -0.0977 C   0  0  0  0  0  0  0  0  0  0  0  0
   -8.1702   -1.1236    2.1875 C   0  0  0  0  0  0  0  0  0  0  0  0
   -8.0799   -1.0105   -2.4367 C   0  0  0  0  0  0  0  0  0  0  0  0
    8.4270   -1.2140    1.1319 H   0  0  0  0  0  0  0  0  0  0  0  0
    8.5246   -1.2408   -0.6294 H   0  0  0  0  0  0  0  0  0  0  0  0
    6.5581    0.3718   -0.6931 H   0  0  0  0  0  0  0  0  0  0  0  0
    6.5263    0.3490    1.0699 H   0  0  0  0  0  0  0  0  0  0  0  0
    6.1713   -2.0852   -0.7599 H   0  0  0  0  0  0  0  0  0  0  0  0
    6.1400   -2.1360    0.9974 H   0  0  0  0  0  0  0  0  0  0  0  0
    9.6546    0.5133   -1.7927 H   0  0  0  0  0  0  0  0  0  0  0  0
    8.2404    1.4656   -1.4240 H   0  0  0  0  0  0  0  0  0  0  0  0
   10.9947    1.2151    1.0268 H   0  0  0  0  0  0  0  0  0  0  0  0
   10.2825   -0.1274    1.8551 H   0  0  0  0  0  0  0  0  0  0  0  0
    4.1688   -0.6019    1.0149 H   0  0  0  0  0  0  0  0  0  0  0  0
    4.1972   -0.5552   -0.7569 H   0  0  0  0  0  0  0  0  0  0  0  0
    9.6609    3.1516   -0.1975 H   0  0  0  0  0  0  0  0  0  0  0  0
   11.0959    2.3191   -0.8463 H   0  0  0  0  0  0  0  0  0  0  0  0
    9.9151    3.0239   -1.9384 H   0  0  0  0  0  0  0  0  0  0  0  0
   10.6518   -1.6175   -0.1822 H   0  0  0  0  0  0  0  0  0  0  0  0
   11.4658   -0.2524   -0.9862 H   0  0  0  0  0  0  0  0  0  0  0  0
   12.1124   -0.9288    0.4890 H   0  0  0  0  0  0  0  0  0  0  0  0
   -1.4925    6.2880    1.5203 H   0  0  0  0  0  0  0  0  0  0  0  0
   -2.1756    4.8527    2.2951 H   0  0  0  0  0  0  0  0  0  0  0  0
   -0.6468    4.7527    1.4182 H   0  0  0  0  0  0  0  0  0  0  0  0
   -3.5440    6.7852    0.1535 H   0  0  0  0  0  0  0  0  0  0  0  0
   -4.3618    5.4536    0.9883 H   0  0  0  0  0  0  0  0  0  0  0  0
   -4.3278    5.4965   -0.7760 H   0  0  0  0  0  0  0  0  0  0  0  0
   -0.6021    4.8160   -1.1012 H   0  0  0  0  0  0  0  0  0  0  0  0
   -2.0979    4.9672   -2.0259 H   0  0  0  0  0  0  0  0  0  0  0  0
   -1.4413    6.3580   -1.1520 H   0  0  0  0  0  0  0  0  0  0  0  0
    4.1094   -3.2869    0.0613 H   0  0  0  0  0  0  0  0  0  0  0  0
   -3.7147    3.2054    0.0644 H   0  0  0  0  0  0  0  0  0  0  0  0
   -3.3624    1.2183    0.0240 H   0  0  0  0  0  0  0  0  0  0  0  0
   -2.3680   -3.3185   -0.0664 H   0  0  0  0  0  0  0  0  0  0  0  0
   -0.1502   -4.5530   -0.0526 H   0  0  0  0  0  0  0  0  0  0  0  0
   -4.0496   -1.0877   -2.2023 H   0  0  0  0  0  0  0  0  0  0  0  0
   -4.1338   -1.1930    2.1073 H   0  0  0  0  0  0  0  0  0  0  0  0
   -7.7965   -1.0731   -0.1183 H   0  0  0  0  0  0  0  0  0  0  0  0
   -8.5253   -0.1944    1.7289 H   0  0  0  0  0  0  0  0  0  0  0  0
   -8.5578   -2.0158    1.6837 H   0  0  0  0  0  0  0  0  0  0  0  0
   -8.5643   -1.1419    3.2091 H   0  0  0  0  0  0  0  0  0  0  0  0
   -8.4861   -1.9258   -1.9926 H   0  0  0  0  0  0  0  0  0  0  0  0
   -8.4533   -0.1043   -1.9475 H   0  0  0  0  0  0  0  0  0  0  0  0
   -8.4338   -0.9785   -3.4725 H   0  0  0  0  0  0  0  0  0  0  0  0
  1 26  2  0  0  0  0
  2 34  1  0  0  0  0
  2 37  1  0  0  0  0
  3 35  1  0  0  0  0
  3 38  1  0  0  0  0
  4 11  1  0  0  0  0
  4 14  1  0  0  0  0
  4 15  1  0  0  0  0
  5 16  1  0  0  0  0
  5 23  1  0  0  0  0
  5 66  1  0  0  0  0
  6 17  1  0  0  0  0
  6 26  1  0  0  0  0
  6 67  1  0  0  0  0
  7 25  1  0  0  0  0
  7 26  1  0  0  0  0
  7 68  1  0  0  0  0
  8 23  2  0  0  0  0
  8 28  1  0  0  0  0
  9 25  1  0  0  0  0
  9 28  2  0  0  0  0
 10 23  1  0  0  0  0
 10 31  2  0  0  0  0
 11 12  1  0  0  0  0
 11 39  1  0  0  0  0
 11 40  1  0  0  0  0
 12 13  1  0  0  0  0
 12 41  1  0  0  0  0
 12 42  1  0  0  0  0
 13 16  1  0  0  0  0
 13 43  1  0  0  0  0
 13 44  1  0  0  0  0
 14 18  1  0  0  0  0
 14 45  1  0  0  0  0
 14 46  1  0  0  0  0
 15 19  1  0  0  0  0
 15 47  1  0  0  0  0
 15 48  1  0  0  0  0
 16 49  1  0  0  0  0
 16 50  1  0  0  0  0
 17 20  1  0  0  0  0
 17 21  1  0  0  0  0
 17 22  1  0  0  0  0
 18 51  1  0  0  0  0
 18 52  1  0  0  0  0
 18 53  1  0  0  0  0
 19 54  1  0  0  0  0
 19 55  1  0  0  0  0
 19 56  1  0  0  0  0
 20 57  1  0  0  0  0
 20 58  1  0  0  0  0
 20 59  1  0  0  0  0
 21 60  1  0  0  0  0
 21 61  1  0  0  0  0
 21 62  1  0  0  0  0
 22 63  1  0  0  0  0
 22 64  1  0  0  0  0
 22 65  1  0  0  0  0
 24 25  2  0  0  0  0
 24 29  1  0  0  0  0
 24 30  1  0  0  0  0
 27 28  1  0  0  0  0
 27 29  2  0  0  0  0
 27 31  1  0  0  0  0
 29 69  1  0  0  0  0
 30 32  2  0  0  0  0
 30 33  1  0  0  0  0
 31 70  1  0  0  0  0
 32 35  1  0  0  0  0
 32 71  1  0  0  0  0
 33 34  2  0  0  0  0
 33 72  1  0  0  0  0
 34 36  1  0  0  0  0
 35 36  2  0  0  0  0
 36 73  1  0  0  0  0
 37 74  1  0  0  0  0
 37 75  1  0  0  0  0
 37 76  1  0  0  0  0
 38 77  1  0  0  0  0
 38 78  1  0  0  0  0
 38 79  1  0  0  0  0
M  END
> <PUBCHEM_COMPOUND_CID>
1401

> <PUBCHEM_CONFORMER_RMSD>
1.4

> <PUBCHEM_CONFORMER_DIVERSEORDER>
1
52
56
44
29
18
41
36
51
40
30
50
55
39
26
45
54
17
34
53
6
31
32
15
35
14
48
42
38
47
23
37
12
49
11
33
16
43
22
9
25
27
46
21
19
24
10
28
7
13
2
4
3
20
8
5

> <PUBCHEM_MMFF94_PARTIAL_CHARGES>
36
1 -0.57
10 -0.62
11 0.27
14 0.27
15 0.27
16 0.37
17 0.3
2 -0.36
23 0.72
25 0.43
26 0.69
28 0.62
29 -0.15
3 -0.36
31 0.16
32 -0.15
33 -0.15
34 0.08
35 0.08
36 -0.15
37 0.28
38 0.28
4 -0.81
5 -0.87
6 -0.73
66 0.4
67 0.37
68 0.37
69 0.15
7 -0.55
70 0.15
71 0.15
72 0.15
73 0.15
8 -0.62
9 -0.62

> <PUBCHEM_EFFECTIVE_ROTOR_COUNT>
15

> <PUBCHEM_PHARMACOPHORE_FEATURES>
13
1 1 acceptor
1 10 acceptor
1 2 acceptor
1 3 acceptor
1 4 cation
1 5 donor
1 6 donor
1 7 donor
4 17 20 21 22 hydrophobe
4 5 8 10 23 cation
6 30 32 33 34 35 36 rings
6 8 10 23 27 28 31 rings
6 9 24 25 27 28 29 rings

> <PUBCHEM_HEAVY_ATOM_COUNT>
38

> <PUBCHEM_ATOM_DEF_STEREO_COUNT>
0

> <PUBCHEM_ATOM_UDEF_STEREO_COUNT>
0

> <PUBCHEM_BOND_DEF_STEREO_COUNT>
0

> <PUBCHEM_BOND_UDEF_STEREO_COUNT>
0

> <PUBCHEM_ISOTOPIC_ATOM_COUNT>
0

> <PUBCHEM_COMPONENT_COUNT>
1

> <PUBCHEM_CACTVS_TAUTO_COUNT>
24

> <PUBCHEM_CONFORMER_ID>
0000057900000001

> <PUBCHEM_MMFF94_ENERGY>
125.3049

> <PUBCHEM_FEATURE_SELFOVERLAP>
66.057

> <PUBCHEM_SHAPE_FINGERPRINT>
10050765 1 18050848823482921306
10369192 42 17131836451974486598
11621639 254 18343013428505678276
12741549 16 17748835129396305397
13165053 182 18042957688966008061
13383668 90 13686292483699743597
13947935 32 18334867069351447320
14118638 360 18334571301372285818
14150022 121 18335703810606127260
14294032 229 18201996603988542910
15276724 80 18272928297940338798
15289351 153 18336819798857397346
15347591 1 18194120708058104466
20721686 146 16701192859486322233
20766409 102 18408891728124918621
22311459 1 18411980278437092538
24771293 8 18273501173441965547
2747138 104 18263098676693919771
283562 15 18264765472598355043
3418910 222 18260562125439368020
437795 83 18339633447989022932
5028188 123 16988842799992411775

> <PUBCHEM_SHAPE_MULTIPOLES>
729.55
31.43
6.4
1.47
94.52
14.48
-0.22
-3.02
-1.87
-6.9
0.32
-4.24
-0.17
-1.29

> <PUBCHEM_SHAPE_SELFOVERLAP>
1524.738

> <PUBCHEM_SHAPE_VOLUME>
414.7

> <PUBCHEM_COORDINATE_TYPE>
2
5
10

$$$$
9549295
  -OEChem-11282412143D

 50 52  0     0  0  0  0  0  0999 V2000
    3.1149   -1.1207    3.0606 Cl  0  0  0  0  0  0  0  0  0  0  0  0
   -0.9668   -0.8914    0.0568 O   0  0  0  0  0  0  0  0  0  0  0  0
   -5.9246   -1.9175   -0.4415 O   0  0  0  0  0  0  0  0  0  0  0  0
   -7.1811    0.5429   -0.1299 O   0  0  0  0  0  0  0  0  0  0  0  0
    5.1991   -0.2392   -1.7963 O   0  0  0  0  0  0  0  0  0  0  0  0
    6.7921   -0.4066   -0.1294 N   0  0  0  0  0  0  0  0  0  0  0  0
    4.5625   -0.6248    0.4341 N   0  0  0  0  0  0  0  0  0  0  0  0
   -2.9593    2.6560    0.4938 N   0  0  0  0  0  0  0  0  0  0  0  0
   -0.9175    1.3782    0.4246 N   0  0  0  0  0  0  0  0  0  0  0  0
   -3.0529    0.2908    0.1070 C   0  0  0  0  0  0  0  0  0  0  0  0
   -3.6746    1.5401    0.2666 C   0  0  0  0  0  0  0  0  0  0  0  0
   -3.8108   -0.8691   -0.1304 C   0  0  0  0  0  0  0  0  0  0  0  0
   -1.6638    0.2807    0.1980 C   0  0  0  0  0  0  0  0  0  0  0  0
    7.9440   -0.2069   -0.9784 C   0  0  0  0  0  0  0  0  0  0  0  0
   -5.1977   -0.7899   -0.2102 C   0  0  0  0  0  0  0  0  0  0  0  0
   -5.8246    0.4414   -0.0539 C   0  0  0  0  0  0  0  0  0  0  0  0
   -5.0638    1.5904    0.1818 C   0  0  0  0  0  0  0  0  0  0  0  0
    8.3256    1.2633   -1.1026 C   0  0  0  0  0  0  0  0  0  0  0  0
    0.4081   -0.8276    0.1597 C   0  0  0  0  0  0  0  0  0  0  0  0
    3.1679   -0.6955    0.3653 C   0  0  0  0  0  0  0  0  0  0  0  0
    1.0043   -0.9854    1.4003 C   0  0  0  0  0  0  0  0  0  0  0  0
    1.1633   -0.6050   -0.9803 C   0  0  0  0  0  0  0  0  0  0  0  0
    2.3936   -0.9191    1.5038 C   0  0  0  0  0  0  0  0  0  0  0  0
    2.5527   -0.5385   -0.8767 C   0  0  0  0  0  0  0  0  0  0  0  0
    5.4794   -0.4080   -0.6119 C   0  0  0  0  0  0  0  0  0  0  0  0
    8.6917    1.8910    0.2348 C   0  0  0  0  0  0  0  0  0  0  0  0
   -1.6201    2.5144    0.5608 C   0  0  0  0  0  0  0  0  0  0  0  0
   -5.2003   -3.1376   -0.5893 C   0  0  0  0  0  0  0  0  0  0  0  0
   -7.7410    0.7934   -1.4174 C   0  0  0  0  0  0  0  0  0  0  0  0
   -3.2706   -1.8028   -0.2449 H   0  0  0  0  0  0  0  0  0  0  0  0
    7.7318   -0.6183   -1.9712 H   0  0  0  0  0  0  0  0  0  0  0  0
    8.7693   -0.7819   -0.5453 H   0  0  0  0  0  0  0  0  0  0  0  0
    7.4975    1.8289   -1.5458 H   0  0  0  0  0  0  0  0  0  0  0  0
    9.1792    1.3533   -1.7841 H   0  0  0  0  0  0  0  0  0  0  0  0
   -5.5721    2.5460    0.3022 H   0  0  0  0  0  0  0  0  0  0  0  0
    6.9463   -0.5462    0.8643 H   0  0  0  0  0  0  0  0  0  0  0  0
    0.3898   -1.1604    2.2799 H   0  0  0  0  0  0  0  0  0  0  0  0
    0.6864   -0.4835   -1.9486 H   0  0  0  0  0  0  0  0  0  0  0  0
    3.0707   -0.3630   -1.8076 H   0  0  0  0  0  0  0  0  0  0  0  0
    4.9601   -0.7462    1.3622 H   0  0  0  0  0  0  0  0  0  0  0  0
    9.5123    1.3460    0.7122 H   0  0  0  0  0  0  0  0  0  0  0  0
    9.0135    2.9271    0.0880 H   0  0  0  0  0  0  0  0  0  0  0  0
    7.8386    1.9009    0.9203 H   0  0  0  0  0  0  0  0  0  0  0  0
   -1.0497    3.4167    0.7442 H   0  0  0  0  0  0  0  0  0  0  0  0
   -4.5436   -3.1137   -1.4656 H   0  0  0  0  0  0  0  0  0  0  0  0
   -5.9363   -3.9290   -0.7663 H   0  0  0  0  0  0  0  0  0  0  0  0
   -4.6641   -3.4028    0.3283 H   0  0  0  0  0  0  0  0  0  0  0  0
   -7.3853    1.7511   -1.8105 H   0  0  0  0  0  0  0  0  0  0  0  0
   -8.8287    0.8397   -1.3150 H   0  0  0  0  0  0  0  0  0  0  0  0
   -7.4890   -0.0147   -2.1114 H   0  0  0  0  0  0  0  0  0  0  0  0
  1 23  1  0  0  0  0
  2 13  1  0  0  0  0
  2 19  1  0  0  0  0
  3 15  1  0  0  0  0
  3 28  1  0  0  0  0
  4 16  1  0  0  0  0
  4 29  1  0  0  0  0
  5 25  2  0  0  0  0
  6 14  1  0  0  0  0
  6 25  1  0  0  0  0
  6 36  1  0  0  0  0
  7 20  1  0  0  0  0
  7 25  1  0  0  0  0
  7 40  1  0  0  0  0
  8 11  1  0  0  0  0
  8 27  2  0  0  0  0
  9 13  2  0  0  0  0
  9 27  1  0  0  0  0
 10 11  1  0  0  0  0
 10 12  2  0  0  0  0
 10 13  1  0  0  0  0
 11 17  2  0  0  0  0
 12 15  1  0  0  0  0
 12 30  1  0  0  0  0
 14 18  1  0  0  0  0
 14 31  1  0  0  0  0
 14 32  1  0  0  0  0
 15 16  2  0  0  0  0
 16 17  1  0  0  0  0
 17 35  1  0  0  0  0
 18 26  1  0  0  0  0
 18 33  1  0  0  0  0
 18 34  1  0  0  0  0
 19 21  2  0  0  0  0
 19 22  1  0  0  0  0
 20 23  2  0  0  0  0
 20 24  1  0  0  0  0
 21 23  1  0  0  0  0
 21 37  1  0  0  0  0
 22 24  2  0  0  0  0
 22 38  1  0  0  0  0
 24 39  1  0  0  0  0
 26 41  1  0  0  0  0
 26 42  1  0  0  0  0
 26 43  1  0  0  0  0
 27 44  1  0  0  0  0
 28 45  1  0  0  0  0
 28 46  1  0  0  0  0
 28 47  1  0  0  0  0
 29 48  1  0  0  0  0
 29 49  1  0  0  0  0
 29 50  1  0  0  0  0
M  END
> <PUBCHEM_COMPOUND_CID>
9549295

> <PUBCHEM_CONFORMER_RMSD>
1

> <PUBCHEM_CONFORMER_DIVERSEORDER>
2
102
115
64
49
127
1
66
25
57
38
103
14
114
95
105
23
125
90
120
69
12
65
68
37
13
83
52
132
91
44
129
7
86
126
19
135
18
32
124
47
61
128
60
130
75
17
56
55
15
48
123
4
117
24
104
85
121
36
112
11
70
111
78
40
92
118
34
98
87
21
88
62
53
3
82
100
96
22
33
133
76
93
51
97
99
80
29
71
122
84
26
16
113
119
63
9
39
101
89
77
116
94
67
20
109
41
8
42
31
107
45
108
110
72
81
43
6
134
10
106
35
79
58
50
27
46
131
54
30
59
28
5
73
74

> <PUBCHEM_MMFF94_PARTIAL_CHARGES>
34
1 -0.18
11 0.31
12 -0.15
13 0.39
14 0.3
15 0.08
16 0.08
17 -0.15
19 0.08
2 -0.17
20 0.12
21 -0.15
22 -0.15
23 0.18
24 -0.15
25 0.69
27 0.47
28 0.28
29 0.28
3 -0.36
30 0.15
35 0.15
36 0.37
37 0.15
38 0.15
39 0.15
4 -0.36
40 0.37
44 0.15
5 -0.57
6 -0.73
7 -0.55
8 -0.62
9 -0.62

> <PUBCHEM_EFFECTIVE_ROTOR_COUNT>
9

> <PUBCHEM_PHARMACOPHORE_FEATURES>
10
1 26 hydrophobe
1 3 acceptor
1 4 acceptor
1 5 acceptor
1 6 donor
1 7 donor
3 8 9 27 cation
6 10 11 12 15 16 17 rings
6 19 20 21 22 23 24 rings
6 8 9 10 11 13 27 rings

> <PUBCHEM_HEAVY_ATOM_COUNT>
29

> <PUBCHEM_ATOM_DEF_STEREO_COUNT>
0

> <PUBCHEM_ATOM_UDEF_STEREO_COUNT>
0

> <PUBCHEM_BOND_DEF_STEREO_COUNT>
0

> <PUBCHEM_BOND_UDEF_STEREO_COUNT>
0

> <PUBCHEM_ISOTOPIC_ATOM_COUNT>
0

> <PUBCHEM_COMPONENT_COUNT>
1

> <PUBCHEM_CACTVS_TAUTO_COUNT>
3

> <PUBCHEM_CONFORMER_ID>
0091B5EF00000002

> <PUBCHEM_MMFF94_ENERGY>
102.5167

> <PUBCHEM_FEATURE_SELFOVERLAP>
50.83

> <PUBCHEM_SHAPE_FINGERPRINT>
10 15 14201404902515827566
10595046 47 18410013196157676874
11135609 187 17313098623504730795
11135926 11 16732698363445989523
11315181 36 18412548713110677977
12236239 1 17968095283345302579
12373685 5 14779263141886561449
12788726 201 18335981948931118345
13422730 43 18410006668102513466
13540713 4 15840122611647688550
13673619 4 16272208574691711472
13782708 43 17275383187911772278
150020 25 18060139851761879668
15183329 4 15410897345112286510
15328829 1 18040438784666002998
15419008 47 17418371381069652416
15461852 350 18341060683471116462
1577012 14 18113051628034223978
17686467 74 18337107985496120616
18681886 176 18340766026574986256
20511986 3 17749658594384917969
20554085 129 17894343407104668736
21150785 3 17917714600257266692
21267235 1 18342458162913354667
21403212 168 16877943841760262208
21792961 116 16988853744418051094
22224240 67 16588026827498201730
2297311 6 18060700568221543913
23557571 272 17988925514349223585
23559900 14 18343860031190041553
3004659 81 18407754846708658797
335352 9 18413100655643279069
34797466 226 17917436406672688580
4325135 7 18409731742254804813
46194498 28 17704354368982734184
5265222 85 17917428787327222966
5486654 2 18410290298731196667
5758199 1 17531249461423112362
9961470 85 17534638293905457908

> <PUBCHEM_SHAPE_MULTIPOLES>
555.27
23.93
2.24
1.51
25.45
0.25
0.83
6.16
-9.36
-2.59
0.25
1.97
-0.54
-1.49

> <PUBCHEM_SHAPE_SELFOVERLAP>
1183.524

> <PUBCHEM_SHAPE_VOLUME>
309.8

> <PUBCHEM_COORDINATE_TYPE>
2
5
10

$$$$
66555680
  -OEChem-11282412143D

 43 47  0     0  0  0  0  0  0999 V2000
    2.0431    2.6288    0.2103 O   0  0  0  0  0  0  0  0  0  0  0  0
   -1.2700    0.1169   -0.1261 N   0  0  0  0  0  0  0  0  0  0  0  0
    3.6941   -0.4250   -0.5427 N   0  0  0  0  0  0  0  0  0  0  0  0
   -5.8201   -1.6166    0.6193 N   0  0  0  0  0  0  0  0  0  0  0  0
   -0.6572   -1.0770   -0.1985 N   0  0  0  0  0  0  0  0  0  0  0  0
   -6.8142    0.1736   -0.2450 N   0  0  0  0  0  0  0  0  0  0  0  0
   -0.8488    2.4463    0.0808 N   0  0  0  0  0  0  0  0  0  0  0  0
   -2.6641    0.1769   -0.1771 C   0  0  0  0  0  0  0  0  0  0  0  0
    0.8499    0.6280    0.0001 C   0  0  0  0  0  0  0  0  0  0  0  0
    3.4287    0.7470    0.1132 C   0  0  0  0  0  0  0  0  0  0  0  0
   -4.8019   -0.7799    0.2401 C   0  0  0  0  0  0  0  0  0  0  0  0
   -0.4120    1.1705   -0.0062 C   0  0  0  0  0  0  0  0  0  0  0  0
    5.0097   -0.7858   -0.3569 C   0  0  0  0  0  0  0  0  0  0  0  0
    5.5955    0.1954    0.4457 C   0  0  0  0  0  0  0  0  0  0  0  0
   -3.4137   -0.8954    0.3179 C   0  0  0  0  0  0  0  0  0  0  0  0
   -5.4481    0.3303   -0.2963 C   0  0  0  0  0  0  0  0  0  0  0  0
    2.1499    1.3840    0.1136 C   0  0  0  0  0  0  0  0  0  0  0  0
    4.5861    1.1560    0.7346 C   0  0  0  0  0  0  0  0  0  0  0  0
   -3.2837    1.3044   -0.7210 C   0  0  0  0  0  0  0  0  0  0  0  0
   -4.6795    1.3984   -0.7890 C   0  0  0  0  0  0  0  0  0  0  0  0
    0.6377   -0.7583   -0.1210 C   0  0  0  0  0  0  0  0  0  0  0  0
   -7.0019   -1.0033    0.3089 C   0  0  0  0  0  0  0  0  0  0  0  0
    5.7187   -1.8942   -0.8334 C   0  0  0  0  0  0  0  0  0  0  0  0
    6.9555    0.0663    0.7910 C   0  0  0  0  0  0  0  0  0  0  0  0
    7.0662   -2.0014   -0.4776 C   0  0  0  0  0  0  0  0  0  0  0  0
    7.6771   -1.0374    0.3220 C   0  0  0  0  0  0  0  0  0  0  0  0
   -8.2973   -1.6483    0.5933 C   0  0  0  0  0  0  0  0  0  0  0  0
   -2.9623   -1.7794    0.7558 H   0  0  0  0  0  0  0  0  0  0  0  0
    3.0538   -0.9292   -1.1384 H   0  0  0  0  0  0  0  0  0  0  0  0
    4.7006    2.0491    1.3346 H   0  0  0  0  0  0  0  0  0  0  0  0
   -2.7444    2.0965   -1.2310 H   0  0  0  0  0  0  0  0  0  0  0  0
   -5.1522    2.2658   -1.2387 H   0  0  0  0  0  0  0  0  0  0  0  0
   -5.7129   -2.5249    1.0513 H   0  0  0  0  0  0  0  0  0  0  0  0
    1.3443   -1.5735   -0.1353 H   0  0  0  0  0  0  0  0  0  0  0  0
    5.2439   -2.6451   -1.4559 H   0  0  0  0  0  0  0  0  0  0  0  0
    7.4441    0.8104    1.4135 H   0  0  0  0  0  0  0  0  0  0  0  0
   -0.1856    3.2162    0.0853 H   0  0  0  0  0  0  0  0  0  0  0  0
   -1.7742    2.7119    0.3966 H   0  0  0  0  0  0  0  0  0  0  0  0
    7.6456   -2.8506   -0.8310 H   0  0  0  0  0  0  0  0  0  0  0  0
    8.7263   -1.1424    0.5853 H   0  0  0  0  0  0  0  0  0  0  0  0
   -9.1261   -1.0080    0.2758 H   0  0  0  0  0  0  0  0  0  0  0  0
   -8.4086   -1.8389    1.6653 H   0  0  0  0  0  0  0  0  0  0  0  0
   -8.3819   -2.6004    0.0601 H   0  0  0  0  0  0  0  0  0  0  0  0
  1 17  2  0  0  0  0
  2  5  1  0  0  0  0
  2  8  1  0  0  0  0
  2 12  1  0  0  0  0
  3 10  1  0  0  0  0
  3 13  1  0  0  0  0
  3 29  1  0  0  0  0
  4 11  1  0  0  0  0
  4 22  1  0  0  0  0
  4 33  1  0  0  0  0
  5 21  2  0  0  0  0
  6 16  1  0  0  0  0
  6 22  2  0  0  0  0
  7 12  1  0  0  0  0
  7 37  1  0  0  0  0
  7 38  1  0  0  0  0
  8 15  2  0  0  0  0
  8 19  1  0  0  0  0
  9 12  2  0  0  0  0
  9 17  1  0  0  0  0
  9 21  1  0  0  0  0
 10 17  1  0  0  0  0
 10 18  2  0  0  0  0
 11 15  1  0  0  0  0
 11 16  2  0  0  0  0
 13 14  1  0  0  0  0
 13 23  2  0  0  0  0
 14 18  1  0  0  0  0
 14 24  2  0  0  0  0
 15 28  1  0  0  0  0
 16 20  1  0  0  0  0
 18 30  1  0  0  0  0
 19 20  2  0  0  0  0
 19 31  1  0  0  0  0
 20 32  1  0  0  0  0
 21 34  1  0  0  0  0
 22 27  1  0  0  0  0
 23 25  1  0  0  0  0
 23 35  1  0  0  0  0
 24 26  1  0  0  0  0
 24 36  1  0  0  0  0
 25 26  2  0  0  0  0
 25 39  1  0  0  0  0
 26 40  1  0  0  0  0
 27 41  1  0  0  0  0
 27 42  1  0  0  0  0
 27 43  1  0  0  0  0
M  END
> <PUBCHEM_COMPOUND_CID>
66555680

> <PUBCHEM_CONFORMER_RMSD>
0.6

> <PUBCHEM_CONFORMER_DIVERSEORDER>
61
67
45
72
18
59
84
60
17
97
39
19
107
71
28
64
53
57
15
12
68
70
104
95
63
21
106
100
6
73
101
69
56
99
81
47
112
11
116
25
23
76
10
118
52
43
117
14
94
51
109
54
62
35
92
79
13
65
74
66
83
38
20
36
8
16
114
5
102
48
98
37
2
33
93
46
30
75
111
1
105
55
31
58
108
22
24
80
113
7
50
88
96
82
32
115
86
9
4
87
41
40
34
78
3
27
42
90
91
49
44
110
89
85
103
77
26
29

> <PUBCHEM_MMFF94_PARTIAL_CHARGES>
39
1 -0.57
10 -0.24
11 -0.15
12 -0.07
13 -0.15
15 -0.15
16 0.23
17 0.74
18 -0.15
19 -0.15
2 0.59
20 -0.15
21 0.14
22 0.01
23 -0.15
24 -0.15
25 -0.15
26 -0.15
27 0.18
28 0.15
29 0.27
3 0.03
30 0.15
31 0.15
32 0.15
33 0.27
34 0.15
35 0.15
36 0.15
37 0.4
38 0.4
39 0.15
4 0.03
40 0.15
5 -0.71
6 -0.57
7 -0.88
8 -0.02
9 -0.09

> <PUBCHEM_EFFECTIVE_ROTOR_COUNT>
3

> <PUBCHEM_PHARMACOPHORE_FEATURES>
13
1 1 acceptor
1 3 cation
1 3 donor
1 4 donor
1 5 acceptor
1 7 cation
1 7 donor
3 4 6 22 cation
5 2 5 9 12 21 rings
5 3 10 13 14 18 rings
5 4 6 11 16 22 rings
6 13 14 23 24 25 26 rings
6 8 11 15 16 19 20 rings

> <PUBCHEM_HEAVY_ATOM_COUNT>
27

> <PUBCHEM_ATOM_DEF_STEREO_COUNT>
0

> <PUBCHEM_ATOM_UDEF_STEREO_COUNT>
0

> <PUBCHEM_BOND_DEF_STEREO_COUNT>
0

> <PUBCHEM_BOND_UDEF_STEREO_COUNT>
0

> <PUBCHEM_ISOTOPIC_ATOM_COUNT>
0

> <PUBCHEM_COMPONENT_COUNT>
1

> <PUBCHEM_CACTVS_TAUTO_COUNT>
54

> <PUBCHEM_CONFORMER_ID>
03F78F200000003D

> <PUBCHEM_MMFF94_ENERGY>
72.1629

> <PUBCHEM_FEATURE_SELFOVERLAP>
66.172

> <PUBCHEM_SHAPE_FINGERPRINT>
10299344 5 17167860854919971498
11315181 36 18334296470493619537
11456790 92 17917724526174719155
11524674 6 17489587883383585671
11578080 2 16517351190627428767
11646440 116 17989205949706413736
117089 54 17626959578243308518
11719270 70 18343582924074303990
11963148 33 18260540139090966403
11991303 11 14273746186762914235
12166972 35 18040157331111699916
12236239 1 17418375809628982213
12516196 113 18272086085429878640
13533116 47 17988922297497931376
13668630 136 18407760326364222522
13673619 4 18187365432474540741
13685833 64 18413108351507098994
13782708 43 18335138734833460607
13885169 127 18410573951498984281
14028597 1 16200160854378103275
14216079 64 18411419501283214970
14251764 18 17846499240220336064
14294032 229 16589417593786063613
14344974 204 18119819260002120867
14556957 393 14562815404561924463
14849402 71 16916496085898979672
14856354 85 16081375159221902083
15183329 4 16008750199613476770
15247644 1 16443060595789811106
15352257 5 18409449180556838170
15419008 47 18409442579118602092
15419008 91 18189875622043054828
1754911 235 11097851908956481971
18335252 98 18411702097821013032
18608769 82 18408319995284603858
19841028 212 17969216738673761746
2026 5 18410292476000729283
21130935 74 18200314441645560219
21150785 3 13695587763121528027
21236236 1 18201439112648787937
21267235 1 18409169913177064649
21279426 13 18266737987335641044
21623969 137 18060422395874360454
21682296 61 18412831274276368551
21781051 124 18114760320316646683
21792934 111 18272925025064704121
22224240 67 16415757535321601806
23035841 295 18186239528625606379
23522609 53 18122377702461866916
23559900 14 18335698398767966825
23576562 1 11819575773951124139
246663 6 18113058242320588187
3004659 81 18113900455801498492
3178227 256 18201723972043448675
328311 84 18411419505298490470
335352 9 18411136960885330103
3383291 50 18408040732074068299
4073 2 18115590482219246250
4340502 62 14476967787095940772
465052 167 18343023298287789612
5104073 3 17987794095804798328
5758199 1 13470688148206074182
58083652 198 16630231572487774609
59755656 215 18187082836506097515
6138700 20 18335984194386532843
636775 8 18410584963985152726
9962374 69 18270109244409929031

> <PUBCHEM_SHAPE_MULTIPOLES>
519.89
23.68
2.05
0.79
4.03
0.41
0.01
-13.65
-2.32
-0.41
0.05
-0.19
-0.05
1.89

> <PUBCHEM_SHAPE_SELFOVERLAP>
1186.273

> <PUBCHEM_SHAPE_VOLUME>
273.7

> <PUBCHEM_COORDINATE_TYPE>
2
5
10

$$$$
129103609
  -OEChem-11282412143D

 49 53  0     1  0  0  0  0  0999 V2000
   -2.3783    1.6580   -3.5418 F   0  0  0  0  0  0  0  0  0  0  0  0
    3.7251    1.1548   -0.8426 O   0  0  0  0  0  0  0  0  0  0  0  0
   -2.0007   -1.5534    0.6375 N   0  0  0  0  0  0  0  0  0  0  0  0
    0.2900   -1.1416    0.3016 N   0  0  0  0  0  0  0  0  0  0  0  0
   -0.7016    2.9085   -0.5887 N   0  0  0  0  0  0  0  0  0  0  0  0
    2.1710    1.1552    0.8790 N   0  0  0  0  0  0  0  0  0  0  0  0
    1.7735   -2.8776   -0.4212 N   0  0  0  0  0  0  0  0  0  0  0  0
    3.0696   -3.0695   -0.7738 N   0  0  0  0  0  0  0  0  0  0  0  0
   -2.3427   -0.1614    1.0089 C   0  0  2  0  0  0  0  0  0  0  0  0
   -3.8726   -0.1861    1.1830 C   0  0  0  0  0  0  0  0  0  0  0  0
   -4.1337   -1.6022    1.6595 C   0  0  0  0  0  0  0  0  0  0  0  0
   -3.1597   -2.4288    0.8281 C   0  0  0  0  0  0  0  0  0  0  0  0
   -1.8929    0.8786   -0.0011 C   0  0  0  0  0  0  0  0  0  0  0  0
   -0.7146   -1.9945    0.2945 C   0  0  0  0  0  0  0  0  0  0  0  0
   -1.0411    1.9545    0.3180 C   0  0  0  0  0  0  0  0  0  0  0  0
   -0.4797    2.1399    1.7084 C   0  0  0  0  0  0  0  0  0  0  0  0
    0.7894    3.0002    1.8569 C   0  0  0  0  0  0  0  0  0  0  0  0
   -2.3286    0.7874   -1.3343 C   0  0  0  0  0  0  0  0  0  0  0  0
    2.0186    2.6008    1.0085 C   0  0  1  0  0  0  0  0  0  0  0  0
   -0.4958   -3.4443   -0.0854 C   0  0  0  0  0  0  0  0  0  0  0  0
    1.5299   -1.5573   -0.0710 C   0  0  0  0  0  0  0  0  0  0  0  0
   -1.9605    1.7403   -2.2744 C   0  0  0  0  0  0  0  0  0  0  0  0
    0.7468   -3.8091   -0.4153 C   0  0  0  0  0  0  0  0  0  0  0  0
    2.7153   -0.8693   -0.2573 C   0  0  0  0  0  0  0  0  0  0  0  0
    3.2820    3.2350    1.5947 C   0  0  0  0  0  0  0  0  0  0  0  0
   -1.1582    2.7778   -1.8515 C   0  0  0  0  0  0  0  0  0  0  0  0
    2.9346    0.5593   -0.1159 C   0  0  0  0  0  0  0  0  0  0  0  0
    3.6150   -1.8557   -0.7043 C   0  0  0  0  0  0  0  0  0  0  0  0
   -1.9120    0.0168    1.9978 H   0  0  0  0  0  0  0  0  0  0  0  0
   -4.2171    0.5680    1.8980 H   0  0  0  0  0  0  0  0  0  0  0  0
   -4.4083   -0.0165    0.2417 H   0  0  0  0  0  0  0  0  0  0  0  0
   -3.8889   -1.6893    2.7250 H   0  0  0  0  0  0  0  0  0  0  0  0
   -5.1724   -1.9144    1.5204 H   0  0  0  0  0  0  0  0  0  0  0  0
   -2.9062   -3.3500    1.3618 H   0  0  0  0  0  0  0  0  0  0  0  0
   -3.5927   -2.6820   -0.1457 H   0  0  0  0  0  0  0  0  0  0  0  0
   -1.2704    2.5822    2.3275 H   0  0  0  0  0  0  0  0  0  0  0  0
   -0.2474    1.1662    2.1493 H   0  0  0  0  0  0  0  0  0  0  0  0
    0.5470    4.0497    1.6435 H   0  0  0  0  0  0  0  0  0  0  0  0
    1.0653    2.9681    2.9199 H   0  0  0  0  0  0  0  0  0  0  0  0
   -2.9669   -0.0342   -1.6506 H   0  0  0  0  0  0  0  0  0  0  0  0
    1.8922    2.9936   -0.0074 H   0  0  0  0  0  0  0  0  0  0  0  0
   -1.3179   -4.1462   -0.0933 H   0  0  0  0  0  0  0  0  0  0  0  0
    1.6544    0.5621    1.5207 H   0  0  0  0  0  0  0  0  0  0  0  0
    0.9951   -4.8231   -0.7047 H   0  0  0  0  0  0  0  0  0  0  0  0
    3.5035    2.8277    2.5875 H   0  0  0  0  0  0  0  0  0  0  0  0
    3.1666    4.3201    1.6864 H   0  0  0  0  0  0  0  0  0  0  0  0
    4.1549    3.0452    0.9620 H   0  0  0  0  0  0  0  0  0  0  0  0
   -0.8473    3.5576   -2.5384 H   0  0  0  0  0  0  0  0  0  0  0  0
    4.6531   -1.7394   -0.9822 H   0  0  0  0  0  0  0  0  0  0  0  0
  1 22  1  0  0  0  0
  2 27  2  0  0  0  0
  3  9  1  0  0  0  0
  3 12  1  0  0  0  0
  3 14  1  0  0  0  0
  4 14  2  0  0  0  0
  4 21  1  0  0  0  0
  5 15  1  0  0  0  0
  5 26  2  0  0  0  0
  6 19  1  0  0  0  0
  6 27  1  0  0  0  0
  6 43  1  0  0  0  0
  7  8  1  0  0  0  0
  7 21  1  0  0  0  0
  7 23  1  0  0  0  0
  8 28  2  0  0  0  0
  9 10  1  0  0  0  0
  9 13  1  0  0  0  0
  9 29  1  0  0  0  0
 10 11  1  0  0  0  0
 10 30  1  0  0  0  0
 10 31  1  0  0  0  0
 11 12  1  0  0  0  0
 11 32  1  0  0  0  0
 11 33  1  0  0  0  0
 12 34  1  0  0  0  0
 12 35  1  0  0  0  0
 13 15  2  0  0  0  0
 13 18  1  0  0  0  0
 14 20  1  0  0  0  0
 15 16  1  0  0  0  0
 16 17  1  0  0  0  0
 16 36  1  0  0  0  0
 16 37  1  0  0  0  0
 17 19  1  0  0  0  0
 17 38  1  0  0  0  0
 17 39  1  0  0  0  0
 18 22  2  0  0  0  0
 18 40  1  0  0  0  0
 19 25  1  0  0  0  0
 19 41  1  0  0  0  0
 20 23  2  0  0  0  0
 20 42  1  0  0  0  0
 21 24  2  0  0  0  0
 22 26  1  0  0  0  0
 23 44  1  0  0  0  0
 24 27  1  0  0  0  0
 24 28  1  0  0  0  0
 25 45  1  0  0  0  0
 25 46  1  0  0  0  0
 25 47  1  0  0  0  0
 26 48  1  0  0  0  0
 28 49  1  0  0  0  0
M  END
> <PUBCHEM_COMPOUND_CID>
129103609

> <PUBCHEM_CONFORMER_RMSD>
0.6

> <PUBCHEM_CONFORMER_DIVERSEORDER>
1
3
2

> <PUBCHEM_MMFF94_PARTIAL_CHARGES>
30
1 -0.19
12 0.37
13 -0.14
14 0.49
15 0.17
16 0.14
18 -0.15
19 0.3
2 -0.57
20 -0.14
21 -0.03
22 0.19
23 -0.18
24 -0.09
26 0.16
27 0.72
28 0.14
3 -0.79
4 -0.58
40 0.15
42 0.15
43 0.37
44 0.15
48 0.15
49 0.15
5 -0.62
6 -0.73
7 0.6
8 -0.71
9 0.51

> <PUBCHEM_EFFECTIVE_ROTOR_COUNT>
1.4

> <PUBCHEM_PHARMACOPHORE_FEATURES>
9
1 2 acceptor
1 5 acceptor
1 6 donor
1 8 acceptor
3 3 4 14 cation
5 3 9 10 11 12 rings
5 7 8 21 24 28 rings
6 4 7 14 20 21 23 rings
6 5 13 15 18 22 26 rings

> <PUBCHEM_HEAVY_ATOM_COUNT>
28

> <PUBCHEM_ATOM_DEF_STEREO_COUNT>
2

> <PUBCHEM_ATOM_UDEF_STEREO_COUNT>
0

> <PUBCHEM_BOND_DEF_STEREO_COUNT>
0

> <PUBCHEM_BOND_UDEF_STEREO_COUNT>
0

> <PUBCHEM_ISOTOPIC_ATOM_COUNT>
0

> <PUBCHEM_COMPONENT_COUNT>
1

> <PUBCHEM_CACTVS_TAUTO_COUNT>
14

> <PUBCHEM_CONFORMER_ID>
07B1F6F900000001

> <PUBCHEM_MMFF94_ENERGY>
73.2226

> <PUBCHEM_FEATURE_SELFOVERLAP>
45.797

> <PUBCHEM_SHAPE_FINGERPRINT>
10064457 181 17551520271950740897
10165383 225 18195545893859388360
10675989 125 16751260001509607780
1100329 8 17838073510580964824
11370993 70 17626104517939163233
11513181 2 16977889697400791958
12156800 1 15105306633439733210
12403259 226 18337119968492358370
12422481 6 18047462610973280520
12553582 1 17477486409320647978
12788726 201 16761124836944492792
13140716 1 18412268362661674946
13402501 40 18339088189121710602
13583140 156 17415562279764989745
138480 1 18271538523922169314
13965767 371 18122900103881150632
14840074 17 17103121850906258236
17492 54 17028275843813666196
1813 80 17388255899677496937
19930381 70 18271253797502338779
20642791 178 17611775657132014971
20691752 17 17681826637605639203
20775438 99 17835191867415947079
21285901 2 18041272249430062607
21330990 113 18265904733599829497
21756936 100 15615810363037483145
22182313 1 18261102020055232053
23419403 2 18410571778129312661
23536364 44 17981912760657774366
238 59 18124279818922148932
2748010 2 18335693970798570131
350125 39 18264225642169051534
3524813 1 18339087110858020498
4409770 3 17619312813767749432
5282274 181 17764313142409101617
58250162 1 14881728133575063216
6287921 2 17979653538465335123
70251023 43 18057024840625713239

> <PUBCHEM_SHAPE_MULTIPOLES>
533.2
6.06
5.17
2.03
0.08
2.1
1.4
0.78
-1.67
2.34
0.41
-1.36
-2.25
2.9

> <PUBCHEM_SHAPE_SELFOVERLAP>
1170.986

> <PUBCHEM_SHAPE_VOLUME>
286.5

> <PUBCHEM_COORDINATE_TYPE>
2
5
10

$$$$
138734912
  -OEChem-11282412143D

 56 58  0     1  0  0  0  0  0999 V2000
    3.4739   -3.9169   -1.3105 O   0  0  0  0  0  0  0  0  0  0  0  0
    0.3575    4.3739   -0.9980 O   0  0  0  0  0  0  0  0  0  0  0  0
   -6.3257    1.4230    0.7009 O   0  0  0  0  0  0  0  0  0  0  0  0
   -5.0543   -2.9624   -0.6927 O   0  0  0  0  0  0  0  0  0  0  0  0
    3.9991   -2.1445    0.0812 N   0  0  0  0  0  0  0  0  0  0  0  0
    2.9376    0.9303   -0.2217 N   0  0  0  0  0  0  0  0  0  0  0  0
    1.7942    0.2242   -0.2188 N   0  0  0  0  0  0  0  0  0  0  0  0
    3.7956    3.1362   -0.1303 N   0  0  0  0  0  0  0  0  0  0  0  0
    0.4575    4.2535    1.2898 N   0  0  0  0  0  0  0  0  0  0  0  0
    4.2598    0.1879   -0.3109 C   0  0  1  0  0  0  0  0  0  0  0  0
    4.8078   -0.1597    1.0810 C   0  0  0  0  0  0  0  0  0  0  0  0
    4.2327   -1.1855   -0.9928 C   0  0  0  0  0  0  0  0  0  0  0  0
    4.2005   -1.5236    1.3881 C   0  0  0  0  0  0  0  0  0  0  0  0
    2.7527    2.2792   -0.1400 C   0  0  0  0  0  0  0  0  0  0  0  0
    3.6287   -3.4489   -0.1829 C   0  0  0  0  0  0  0  0  0  0  0  0
    1.3936    2.4687   -0.0793 C   0  0  0  0  0  0  0  0  0  0  0  0
    0.8544    1.1694   -0.1317 C   0  0  0  0  0  0  0  0  0  0  0  0
    3.4031   -4.3218    0.9860 C   0  0  0  0  0  0  0  0  0  0  0  0
    0.7239    3.7326    0.0161 C   0  0  0  0  0  0  0  0  0  0  0  0
    3.7612    4.5027   -0.6544 C   0  0  0  0  0  0  0  0  0  0  0  0
   -0.5092    0.7654   -0.1040 C   0  0  0  0  0  0  0  0  0  0  0  0
    3.0437   -5.5909    0.7828 C   0  0  0  0  0  0  0  0  0  0  0  0
   -1.6609    0.4244   -0.0805 C   0  0  0  0  0  0  0  0  0  0  0  0
   -3.0323    0.0186   -0.0524 C   0  0  0  0  0  0  0  0  0  0  0  0
   -3.3792   -1.2894   -0.3908 C   0  0  0  0  0  0  0  0  0  0  0  0
   -4.0224    0.9301    0.3145 C   0  0  0  0  0  0  0  0  0  0  0  0
   -5.3594    0.5336    0.3429 C   0  0  0  0  0  0  0  0  0  0  0  0
   -4.7162   -1.6858   -0.3624 C   0  0  0  0  0  0  0  0  0  0  0  0
   -5.7063   -0.7743    0.0045 C   0  0  0  0  0  0  0  0  0  0  0  0
   -7.6719    0.9505    0.7086 C   0  0  0  0  0  0  0  0  0  0  0  0
   -6.4395   -3.3005   -0.6424 C   0  0  0  0  0  0  0  0  0  0  0  0
    4.9206    0.8627   -0.8650 H   0  0  0  0  0  0  0  0  0  0  0  0
    4.5719    0.5796    1.8523 H   0  0  0  0  0  0  0  0  0  0  0  0
    5.8994   -0.2538    1.0238 H   0  0  0  0  0  0  0  0  0  0  0  0
    3.4743   -1.2839   -1.7757 H   0  0  0  0  0  0  0  0  0  0  0  0
    5.2112   -1.4251   -1.4251 H   0  0  0  0  0  0  0  0  0  0  0  0
    4.8599   -2.1327    2.0129 H   0  0  0  0  0  0  0  0  0  0  0  0
    3.2241   -1.4320    1.8758 H   0  0  0  0  0  0  0  0  0  0  0  0
    4.7373    2.7838    0.0220 H   0  0  0  0  0  0  0  0  0  0  0  0
    3.5103   -3.9494    1.9960 H   0  0  0  0  0  0  0  0  0  0  0  0
    3.1906    5.1568    0.0110 H   0  0  0  0  0  0  0  0  0  0  0  0
    4.7813    4.8936   -0.7177 H   0  0  0  0  0  0  0  0  0  0  0  0
    3.3242    4.5250   -1.6575 H   0  0  0  0  0  0  0  0  0  0  0  0
    2.8679   -6.2421    1.6333 H   0  0  0  0  0  0  0  0  0  0  0  0
    2.9127   -6.0259   -0.2016 H   0  0  0  0  0  0  0  0  0  0  0  0
    0.7291    3.7656    2.1374 H   0  0  0  0  0  0  0  0  0  0  0  0
   -0.0194    5.1421    1.4002 H   0  0  0  0  0  0  0  0  0  0  0  0
   -2.6139   -2.0075   -0.6779 H   0  0  0  0  0  0  0  0  0  0  0  0
   -3.7613    1.9523    0.5802 H   0  0  0  0  0  0  0  0  0  0  0  0
   -6.7412   -1.0814    0.0264 H   0  0  0  0  0  0  0  0  0  0  0  0
   -8.3046    1.7896    1.0167 H   0  0  0  0  0  0  0  0  0  0  0  0
   -7.8178    0.1567    1.4492 H   0  0  0  0  0  0  0  0  0  0  0  0
   -8.0033    0.6567   -0.2933 H   0  0  0  0  0  0  0  0  0  0  0  0
   -6.5237   -4.3524   -0.9352 H   0  0  0  0  0  0  0  0  0  0  0  0
   -7.0234   -2.7233   -1.3675 H   0  0  0  0  0  0  0  0  0  0  0  0
   -6.8381   -3.2232    0.3750 H   0  0  0  0  0  0  0  0  0  0  0  0
  1 15  2  0  0  0  0
  2 19  2  0  0  0  0
  3 27  1  0  0  0  0
  3 30  1  0  0  0  0
  4 28  1  0  0  0  0
  4 31  1  0  0  0  0
  5 12  1  0  0  0  0
  5 13  1  0  0  0  0
  5 15  1  0  0  0  0
  6  7  1  0  0  0  0
  6 10  1  0  0  0  0
  6 14  1  0  0  0  0
  7 17  2  0  0  0  0
  8 14  1  0  0  0  0
  8 20  1  0  0  0  0
  8 39  1  0  0  0  0
  9 19  1  0  0  0  0
  9 46  1  0  0  0  0
  9 47  1  0  0  0  0
 10 11  1  0  0  0  0
 10 12  1  0  0  0  0
 10 32  1  0  0  0  0
 11 13  1  0  0  0  0
 11 33  1  0  0  0  0
 11 34  1  0  0  0  0
 12 35  1  0  0  0  0
 12 36  1  0  0  0  0
 13 37  1  0  0  0  0
 13 38  1  0  0  0  0
 14 16  2  0  0  0  0
 15 18  1  0  0  0  0
 16 17  1  0  0  0  0
 16 19  1  0  0  0  0
 17 21  1  0  0  0  0
 18 22  2  0  0  0  0
 18 40  1  0  0  0  0
 20 41  1  0  0  0  0
 20 42  1  0  0  0  0
 20 43  1  0  0  0  0
 21 23  3  0  0  0  0
 22 44  1  0  0  0  0
 22 45  1  0  0  0  0
 23 24  1  0  0  0  0
 24 25  2  0  0  0  0
 24 26  1  0  0  0  0
 25 28  1  0  0  0  0
 25 48  1  0  0  0  0
 26 27  2  0  0  0  0
 26 49  1  0  0  0  0
 27 29  1  0  0  0  0
 28 29  2  0  0  0  0
 29 50  1  0  0  0  0
 30 51  1  0  0  0  0
 30 52  1  0  0  0  0
 30 53  1  0  0  0  0
 31 54  1  0  0  0  0
 31 55  1  0  0  0  0
 31 56  1  0  0  0  0
M  END
> <PUBCHEM_COMPOUND_CID>
138734912

> <PUBCHEM_CONFORMER_RMSD>
1

> <PUBCHEM_CONFORMER_DIVERSEORDER>
1
26
10
25
27
17
22
21
20
28
16
18
2
12
5
7
24
14
15
11
6
13
9
3
19
8
23
4

> <PUBCHEM_MMFF94_PARTIAL_CHARGES>
39
1 -0.57
10 0.26
12 0.3
13 0.3
14 -0.07
15 0.62
16 -0.09
17 0.31
18 -0.14
19 0.72
2 -0.57
20 0.37
21 -0.02
22 -0.3
23 -0.07
24 0.07
25 -0.15
26 -0.15
27 0.08
28 0.08
29 -0.15
3 -0.36
30 0.28
31 0.28
39 0.4
4 -0.36
40 0.15
44 0.15
45 0.15
46 0.37
47 0.37
48 0.15
49 0.15
5 -0.66
50 0.15
6 0.31
7 -0.71
8 -0.85
9 -0.8

> <PUBCHEM_EFFECTIVE_ROTOR_COUNT>
8

> <PUBCHEM_PHARMACOPHORE_FEATURES>
12
1 1 acceptor
1 2 acceptor
1 22 hydrophobe
1 3 acceptor
1 4 acceptor
1 7 acceptor
1 8 cation
1 8 donor
1 9 donor
5 5 10 11 12 13 rings
5 6 7 14 16 17 rings
6 24 25 26 27 28 29 rings

> <PUBCHEM_HEAVY_ATOM_COUNT>
31

> <PUBCHEM_ATOM_DEF_STEREO_COUNT>
1

> <PUBCHEM_ATOM_UDEF_STEREO_COUNT>
0

> <PUBCHEM_BOND_DEF_STEREO_COUNT>
0

> <PUBCHEM_BOND_UDEF_STEREO_COUNT>
0

> <PUBCHEM_ISOTOPIC_ATOM_COUNT>
0

> <PUBCHEM_COMPONENT_COUNT>
1

> <PUBCHEM_CACTVS_TAUTO_COUNT>
-1

> <PUBCHEM_CONFORMER_ID>
0844ED4000000001

> <PUBCHEM_MMFF94_ENERGY>
92.9137

> <PUBCHEM_FEATURE_SELFOVERLAP>
60.897

> <PUBCHEM_SHAPE_FINGERPRINT>
10595046 47 18196092368661101757
12107183 9 18269845216450490825
1361 2 18337951324042392770
13692114 37 17619617425368780250
13785724 45 18198351645416815654
14866123 147 17547008529149642945
15183329 4 18410573985874092343
15250474 111 18199459042937135919
15400415 2 18120937466872806525
15484559 13 18123761004870689852
19301679 30 18193275195804167539
19427546 62 17832987522479630036
1979834 28 17774719736667543270
21478907 32 18121219775241522880
22033318 11 17911550630677460433
23559900 14 18343294895282960969
25222932 49 18341891917961155358
4073 2 18118127098435864145
4144715 1 18260840323709342769
463206 1 18335139791063729906
5104073 3 18272091664650399569
5309563 4 18339359669847212662
70251023 43 18263087621880454112
7970288 3 18265893545337045962

> <PUBCHEM_SHAPE_MULTIPOLES>
589.58
16.2
7.19
1
29.7
2.49
0.1
8.69
1.27
-9.87
0.02
-0.56
0.25
-2.25

> <PUBCHEM_SHAPE_SELFOVERLAP>
1250.641

> <PUBCHEM_SHAPE_VOLUME>
332.2

> <PUBCHEM_COORDINATE_TYPE>
2
5
10

$$$$
44181686
  -OEChem-11282412143D

 56 60  0     1  0  0  0  0  0999 V2000
   -5.6821   -0.6160   -2.3207 F   0  0  0  0  0  0  0  0  0  0  0  0
    0.6198   -0.3453    1.9487 O   0  0  0  0  0  0  0  0  0  0  0  0
    5.2842    0.4886    0.1150 O   0  0  0  0  0  0  0  0  0  0  0  0
    6.8187    2.6882   -0.6976 O   0  0  0  0  0  0  0  0  0  0  0  0
   -0.0767   -2.2978    0.8705 N   0  0  0  0  0  0  0  0  0  0  0  0
   -3.0031   -1.0441    0.0657 N   0  0  0  0  0  0  0  0  0  0  0  0
   -3.1536   -3.2314   -0.0373 N   0  0  0  0  0  0  0  0  0  0  0  0
   -4.1022   -2.6990   -0.8877 N   0  0  0  0  0  0  0  0  0  0  0  0
    3.5447   -2.4556   -1.1489 N   0  0  0  0  0  0  0  0  0  0  0  0
   -2.9436    4.8344    0.4229 N   0  0  0  0  0  0  0  0  0  0  0  0
   -1.6659    4.5007    0.6728 N   0  0  0  0  0  0  0  0  0  0  0  0
   -1.3795   -2.3385    1.5251 C   0  0  1  0  0  0  0  0  0  0  0  0
   -2.5078   -2.2324    0.5219 C   0  0  0  0  0  0  0  0  0  0  0  0
   -1.4888   -3.5854    2.4004 C   0  0  0  0  0  0  0  0  0  0  0  0
   -4.0074   -1.3886   -0.8221 C   0  0  0  0  0  0  0  0  0  0  0  0
    0.8275   -1.2636    1.1599 C   0  0  0  0  0  0  0  0  0  0  0  0
   -2.6434    0.2654    0.3658 C   0  0  0  0  0  0  0  0  0  0  0  0
    0.2179   -3.3059   -0.0308 C   0  0  0  0  0  0  0  0  0  0  0  0
    2.1264   -1.3145    0.4398 C   0  0  0  0  0  0  0  0  0  0  0  0
   -3.2979    1.2884   -0.2283 C   0  0  0  0  0  0  0  0  0  0  0  0
    2.3859   -2.3457   -0.4591 C   0  0  0  0  0  0  0  0  0  0  0  0
    1.3786   -3.3733   -0.6906 C   0  0  0  0  0  0  0  0  0  0  0  0
   -4.6962   -0.3235   -1.4500 C   0  0  0  0  0  0  0  0  0  0  0  0
   -4.3690    0.9522   -1.1778 C   0  0  0  0  0  0  0  0  0  0  0  0
   -2.9092    2.6766    0.0856 C   0  0  0  0  0  0  0  0  0  0  0  0
    3.1073   -0.3452    0.6418 C   0  0  0  0  0  0  0  0  0  0  0  0
    4.3069   -0.4363   -0.0555 C   0  0  0  0  0  0  0  0  0  0  0  0
   -3.7298    3.7781    0.0672 C   0  0  0  0  0  0  0  0  0  0  0  0
   -1.6510    3.1814    0.4651 C   0  0  0  0  0  0  0  0  0  0  0  0
    4.4749   -1.4985   -0.9294 C   0  0  0  0  0  0  0  0  0  0  0  0
    6.4847    0.3182   -0.6413 C   0  0  0  0  0  0  0  0  0  0  0  0
   -3.3599    6.2111    0.5421 C   0  0  0  0  0  0  0  0  0  0  0  0
    7.4331    1.4596   -0.3281 C   0  0  0  0  0  0  0  0  0  0  0  0
    7.6564    3.7977   -0.4052 C   0  0  0  0  0  0  0  0  0  0  0  0
   -1.4567   -1.4903    2.2153 H   0  0  0  0  0  0  0  0  0  0  0  0
   -1.4886   -4.5162    1.8232 H   0  0  0  0  0  0  0  0  0  0  0  0
   -0.6578   -3.6363    3.1129 H   0  0  0  0  0  0  0  0  0  0  0  0
   -2.4220   -3.5681    2.9754 H   0  0  0  0  0  0  0  0  0  0  0  0
   -1.8438    0.4130    1.0800 H   0  0  0  0  0  0  0  0  0  0  0  0
   -0.5343   -4.0677   -0.2017 H   0  0  0  0  0  0  0  0  0  0  0  0
    1.5877   -4.1718   -1.3925 H   0  0  0  0  0  0  0  0  0  0  0  0
   -4.9001    1.7606   -1.6695 H   0  0  0  0  0  0  0  0  0  0  0  0
    2.9508    0.4784    1.3328 H   0  0  0  0  0  0  0  0  0  0  0  0
   -4.7806    3.8997   -0.1600 H   0  0  0  0  0  0  0  0  0  0  0  0
   -0.7180    2.6516    0.5984 H   0  0  0  0  0  0  0  0  0  0  0  0
    5.3687   -1.6641   -1.5192 H   0  0  0  0  0  0  0  0  0  0  0  0
    6.9761   -0.6248   -0.3744 H   0  0  0  0  0  0  0  0  0  0  0  0
    6.2528    0.3516   -1.7131 H   0  0  0  0  0  0  0  0  0  0  0  0
   -3.1827    6.5362    1.5703 H   0  0  0  0  0  0  0  0  0  0  0  0
   -2.7721    6.8100   -0.1578 H   0  0  0  0  0  0  0  0  0  0  0  0
   -4.4229    6.2933    0.3025 H   0  0  0  0  0  0  0  0  0  0  0  0
    8.3698    1.3314   -0.8817 H   0  0  0  0  0  0  0  0  0  0  0  0
    7.6462    1.4790    0.7470 H   0  0  0  0  0  0  0  0  0  0  0  0
    7.1386    4.7104   -0.7122 H   0  0  0  0  0  0  0  0  0  0  0  0
    8.5963    3.7261   -0.9609 H   0  0  0  0  0  0  0  0  0  0  0  0
    7.8568    3.8551    0.6691 H   0  0  0  0  0  0  0  0  0  0  0  0
  1 23  1  0  0  0  0
  2 16  2  0  0  0  0
  3 27  1  0  0  0  0
  3 31  1  0  0  0  0
  4 33  1  0  0  0  0
  4 34  1  0  0  0  0
  5 12  1  0  0  0  0
  5 16  1  0  0  0  0
  5 18  1  0  0  0  0
  6 13  1  0  0  0  0
  6 15  1  0  0  0  0
  6 17  1  0  0  0  0
  7  8  1  0  0  0  0
  7 13  2  0  0  0  0
  8 15  2  0  0  0  0
  9 21  1  0  0  0  0
  9 30  2  0  0  0  0
 10 11  1  0  0  0  0
 10 28  1  0  0  0  0
 10 32  1  0  0  0  0
 11 29  2  0  0  0  0
 12 13  1  0  0  0  0
 12 14  1  0  0  0  0
 12 35  1  0  0  0  0
 14 36  1  0  0  0  0
 14 37  1  0  0  0  0
 14 38  1  0  0  0  0
 15 23  1  0  0  0  0
 16 19  1  0  0  0  0
 17 20  2  0  0  0  0
 17 39  1  0  0  0  0
 18 22  2  0  0  0  0
 18 40  1  0  0  0  0
 19 21  2  0  0  0  0
 19 26  1  0  0  0  0
 20 24  1  0  0  0  0
 20 25  1  0  0  0  0
 21 22  1  0  0  0  0
 22 41  1  0  0  0  0
 23 24  2  0  0  0  0
 24 42  1  0  0  0  0
 25 28  2  0  0  0  0
 25 29  1  0  0  0  0
 26 27  2  0  0  0  0
 26 43  1  0  0  0  0
 27 30  1  0  0  0  0
 28 44  1  0  0  0  0
 29 45  1  0  0  0  0
 30 46  1  0  0  0  0
 31 33  1  0  0  0  0
 31 47  1  0  0  0  0
 31 48  1  0  0  0  0
 32 49  1  0  0  0  0
 32 50  1  0  0  0  0
 32 51  1  0  0  0  0
 33 52  1  0  0  0  0
 33 53  1  0  0  0  0
 34 54  1  0  0  0  0
 34 55  1  0  0  0  0
 34 56  1  0  0  0  0
M  END
> <PUBCHEM_COMPOUND_CID>
44181686

> <PUBCHEM_CONFORMER_RMSD>
1

> <PUBCHEM_CONFORMER_DIVERSEORDER>
1
85
72
121
65
117
50
45
87
60
110
111
105
44
41
59
64
84
88
108
61
92
20
114
91
101
76
55
68
17
10
32
78
122
54
112
103
49
11
15
73
71
70
53
56
43
12
104
82
63
74
46
67
4
107
28
19
113
52
80
120
115
38
95
31
116
119
13
48
102
40
57
22
16
98
90
47
27
2
25
109
62
8
118
97
14
39
23
100
75
79
9
42
77
21
81
93
51
86
96
94
7
89
99
24
36
30
33
26
34
83
35
18
6
58
29
69
5
3
106
37
66

> <PUBCHEM_MMFF94_PARTIAL_CHARGES>
41
1 -0.15
10 0.31
11 -0.71
12 0.48
13 0.01
15 0.14
16 0.54
17 -0.18
18 -0.04
19 0.09
2 -0.57
20 0.05
21 0.34
22 -0.18
23 0.19
24 -0.15
25 -0.05
26 -0.15
27 0.08
28 -0.3
29 0.14
3 -0.36
30 0.16
31 0.28
32 0.26
33 0.28
34 0.28
39 0.15
4 -0.56
40 0.15
41 0.15
42 0.15
43 0.15
44 0.15
45 0.15
46 0.15
5 -0.47
6 0.33
7 -0.34
8 -0.34
9 -0.62

> <PUBCHEM_EFFECTIVE_ROTOR_COUNT>
7

> <PUBCHEM_PHARMACOPHORE_FEATURES>
12
1 11 acceptor
1 2 acceptor
1 3 acceptor
1 4 acceptor
1 9 acceptor
3 6 7 13 cation
3 6 8 15 cation
5 10 11 25 28 29 rings
5 6 7 8 13 15 rings
6 5 16 18 19 21 22 rings
6 6 15 17 20 23 24 rings
6 9 19 21 26 27 30 rings

> <PUBCHEM_HEAVY_ATOM_COUNT>
34

> <PUBCHEM_ATOM_DEF_STEREO_COUNT>
1

> <PUBCHEM_ATOM_UDEF_STEREO_COUNT>
0

> <PUBCHEM_BOND_DEF_STEREO_COUNT>
0

> <PUBCHEM_BOND_UDEF_STEREO_COUNT>
0

> <PUBCHEM_ISOTOPIC_ATOM_COUNT>
0

> <PUBCHEM_COMPONENT_COUNT>
1

> <PUBCHEM_CACTVS_TAUTO_COUNT>
1

> <PUBCHEM_CONFORMER_ID>
02A228B600000001

> <PUBCHEM_MMFF94_ENERGY>
85.5646

> <PUBCHEM_FEATURE_SELFOVERLAP>
63.517

> <PUBCHEM_SHAPE_FINGERPRINT>
10291535 26 18261680362586426002
10871710 139 18267579101568823365
10928967 22 11095881523736439454
10937287 8 17977947882830292299
11434127 23 18410291427922915990
11476731 118 18196090178286459232
11477941 20 18127965523838103182
11761917 142 18412536618742210304
11763389 116 17475795828689966520
12788726 201 18337658734154173555
13383668 90 13612312977659596920
13944108 23 16320911111073280516
14251764 75 17836935499230766313
14347329 18 18411416220481686656
14790565 3 17692252933232520977
151778 21 17257931495106798401
15289351 153 18410007781169579584
155225 5 18411420631186966748
15968369 153 18265077836362634745
16067689 134 17903078838040845402
16728433 281 18337128817290981868
16991981 162 17558547998573522009
16992787 43 18410851050347073829
19053607 189 18268419149811600544
21033650 10 18264225646353658262
21859007 373 18200580515402239360
22956985 138 16095184238639732754
2838139 119 18409454653141245102
312425 83 17985551048212004127
3493558 16 18042131027866643372
3525247 154 18272087262315060088
437795 83 18341058518728964852
469060 322 16082239336854178483
4756261 7 17982770474301487065
50677037 204 18334861610648714916
5252454 2 17758955918406242589
563151 74 15285629954714786456
57527585 21 18198600212432868863
6036956 94 18335426802232199412
6201320 215 18340202020962326992
7288768 16 17751374884627628435
8863177 126 8934999257748683830

> <PUBCHEM_SHAPE_MULTIPOLES>
639.96
15.34
7.34
1.44
31.04
10.64
0.2
14.56
-6.75
-5.63
1.76
-1.27
-1.11
-0.98

> <PUBCHEM_SHAPE_SELFOVERLAP>
1407.647

> <PUBCHEM_SHAPE_VOLUME>
349.2

> <PUBCHEM_COORDINATE_TYPE>
2
5
10

$$$$
57990869
  -OEChem-11282412143D

 61 65  0     1  0  0  0  0  0999 V2000
    6.8283   -4.4913    0.0949 O   0  0  0  0  0  0  0  0  0  0  0  0
   -5.7289   -0.7562    1.4902 O   0  0  0  0  0  0  0  0  0  0  0  0
   -7.3773   -2.7032    0.9543 N   0  0  0  0  0  0  0  0  0  0  0  0
    5.4265   -2.0566    0.0158 N   0  0  0  0  0  0  0  0  0  0  0  0
   -4.4330   -1.0860   -0.4459 N   0  0  0  0  0  0  0  0  0  0  0  0
    3.0711    3.0183    0.1229 N   0  0  0  0  0  0  0  0  0  0  0  0
    0.7896    2.4889   -0.0194 N   0  0  0  0  0  0  0  0  0  0  0  0
    1.5221    4.7803    0.1237 N   0  0  0  0  0  0  0  0  0  0  0  0
   -6.3006   -2.4994   -0.0145 C   0  0  1  0  0  0  0  0  0  0  0  0
   -6.9917   -2.2028   -1.3410 C   0  0  0  0  0  0  0  0  0  0  0  0
   -8.4748   -2.1009   -1.0047 C   0  0  0  0  0  0  0  0  0  0  0  0
   -8.5078   -1.9017    0.4966 C   0  0  0  0  0  0  0  0  0  0  0  0
   -5.4649   -1.3452    0.4470 C   0  0  0  0  0  0  0  0  0  0  0  0
    6.3710   -2.4026   -1.0518 C   0  0  0  0  0  0  0  0  0  0  0  0
    5.6488   -2.7444    1.2951 C   0  0  0  0  0  0  0  0  0  0  0  0
    6.4860   -3.9186   -1.1667 C   0  0  0  0  0  0  0  0  0  0  0  0
    5.8015   -4.2421    1.0546 C   0  0  0  0  0  0  0  0  0  0  0  0
    4.8374   -0.7883    0.0419 C   0  0  0  0  0  0  0  0  0  0  0  0
   -3.4438   -0.0787   -0.3498 C   0  0  0  0  0  0  0  0  0  0  0  0
    3.5638   -0.6216    0.5864 C   0  0  0  0  0  0  0  0  0  0  0  0
    5.5234    0.3102   -0.4761 C   0  0  0  0  0  0  0  0  0  0  0  0
   -3.4390    0.7924    0.7398 C   0  0  0  0  0  0  0  0  0  0  0  0
   -2.4736    0.0433   -1.3446 C   0  0  0  0  0  0  0  0  0  0  0  0
    3.6626    1.7415    0.0941 C   0  0  0  0  0  0  0  0  0  0  0  0
    2.9765    0.6432    0.6125 C   0  0  0  0  0  0  0  0  0  0  0  0
    4.9361    1.5751   -0.4501 C   0  0  0  0  0  0  0  0  0  0  0  0
   -1.4936    1.9072   -0.1603 C   0  0  0  0  0  0  0  0  0  0  0  0
   -2.4639    1.7852    0.8344 C   0  0  0  0  0  0  0  0  0  0  0  0
   -1.4986    1.0362   -1.2497 C   0  0  0  0  0  0  0  0  0  0  0  0
   -0.4823    2.9369   -0.0619 C   0  0  0  0  0  0  0  0  0  0  0  0
    1.7280    3.4504    0.0721 C   0  0  0  0  0  0  0  0  0  0  0  0
   -0.8265    4.2726   -0.0167 C   0  0  0  0  0  0  0  0  0  0  0  0
    0.2276    5.1581    0.0770 C   0  0  0  0  0  0  0  0  0  0  0  0
   -5.6690   -3.3922   -0.0754 H   0  0  0  0  0  0  0  0  0  0  0  0
   -6.8302   -3.0103   -2.0640 H   0  0  0  0  0  0  0  0  0  0  0  0
   -6.6590   -1.2680   -1.8058 H   0  0  0  0  0  0  0  0  0  0  0  0
   -8.9657   -1.2849   -1.5437 H   0  0  0  0  0  0  0  0  0  0  0  0
   -8.9799   -3.0362   -1.2758 H   0  0  0  0  0  0  0  0  0  0  0  0
   -9.4490   -2.2453    0.9348 H   0  0  0  0  0  0  0  0  0  0  0  0
   -8.3709   -0.8451    0.7533 H   0  0  0  0  0  0  0  0  0  0  0  0
   -7.0996   -2.4561    1.9019 H   0  0  0  0  0  0  0  0  0  0  0  0
    7.3559   -1.9832   -0.8121 H   0  0  0  0  0  0  0  0  0  0  0  0
    6.0439   -2.0017   -2.0184 H   0  0  0  0  0  0  0  0  0  0  0  0
    4.8273   -2.5835    2.0015 H   0  0  0  0  0  0  0  0  0  0  0  0
    6.5647   -2.3463    1.7492 H   0  0  0  0  0  0  0  0  0  0  0  0
   -4.3556   -1.6847   -1.2654 H   0  0  0  0  0  0  0  0  0  0  0  0
    5.5506   -4.3638   -1.5269 H   0  0  0  0  0  0  0  0  0  0  0  0
    7.2736   -4.1803   -1.8804 H   0  0  0  0  0  0  0  0  0  0  0  0
    6.0834   -4.7429    1.9862 H   0  0  0  0  0  0  0  0  0  0  0  0
    4.8618   -4.6891    0.7080 H   0  0  0  0  0  0  0  0  0  0  0  0
    3.0118   -1.4660    0.9912 H   0  0  0  0  0  0  0  0  0  0  0  0
    6.5217    0.2196   -0.8947 H   0  0  0  0  0  0  0  0  0  0  0  0
   -4.1555    0.7585    1.5485 H   0  0  0  0  0  0  0  0  0  0  0  0
   -2.4666   -0.6285   -2.1991 H   0  0  0  0  0  0  0  0  0  0  0  0
    2.0029    0.7322    1.0826 H   0  0  0  0  0  0  0  0  0  0  0  0
    5.4821    2.4236   -0.8546 H   0  0  0  0  0  0  0  0  0  0  0  0
   -2.4734    2.4511    1.6944 H   0  0  0  0  0  0  0  0  0  0  0  0
   -0.7522    1.1178   -2.0365 H   0  0  0  0  0  0  0  0  0  0  0  0
    3.7295    3.7887    0.0556 H   0  0  0  0  0  0  0  0  0  0  0  0
   -1.8504    4.6232   -0.0559 H   0  0  0  0  0  0  0  0  0  0  0  0
    0.0555    6.2284    0.1171 H   0  0  0  0  0  0  0  0  0  0  0  0
  1 16  1  0  0  0  0
  1 17  1  0  0  0  0
  2 13  2  0  0  0  0
  3  9  1  0  0  0  0
  3 12  1  0  0  0  0
  3 41  1  0  0  0  0
  4 14  1  0  0  0  0
  4 15  1  0  0  0  0
  4 18  1  0  0  0  0
  5 13  1  0  0  0  0
  5 19  1  0  0  0  0
  5 46  1  0  0  0  0
  6 24  1  0  0  0  0
  6 31  1  0  0  0  0
  6 59  1  0  0  0  0
  7 30  2  0  0  0  0
  7 31  1  0  0  0  0
  8 31  2  0  0  0  0
  8 33  1  0  0  0  0
  9 10  1  0  0  0  0
  9 13  1  0  0  0  0
  9 34  1  0  0  0  0
 10 11  1  0  0  0  0
 10 35  1  0  0  0  0
 10 36  1  0  0  0  0
 11 12  1  0  0  0  0
 11 37  1  0  0  0  0
 11 38  1  0  0  0  0
 12 39  1  0  0  0  0
 12 40  1  0  0  0  0
 14 16  1  0  0  0  0
 14 42  1  0  0  0  0
 14 43  1  0  0  0  0
 15 17  1  0  0  0  0
 15 44  1  0  0  0  0
 15 45  1  0  0  0  0
 16 47  1  0  0  0  0
 16 48  1  0  0  0  0
 17 49  1  0  0  0  0
 17 50  1  0  0  0  0
 18 20  2  0  0  0  0
 18 21  1  0  0  0  0
 19 22  2  0  0  0  0
 19 23  1  0  0  0  0
 20 25  1  0  0  0  0
 20 51  1  0  0  0  0
 21 26  2  0  0  0  0
 21 52  1  0  0  0  0
 22 28  1  0  0  0  0
 22 53  1  0  0  0  0
 23 29  2  0  0  0  0
 23 54  1  0  0  0  0
 24 25  2  0  0  0  0
 24 26  1  0  0  0  0
 25 55  1  0  0  0  0
 26 56  1  0  0  0  0
 27 28  2  0  0  0  0
 27 29  1  0  0  0  0
 27 30  1  0  0  0  0
 28 57  1  0  0  0  0
 29 58  1  0  0  0  0
 30 32  1  0  0  0  0
 32 33  2  0  0  0  0
 32 60  1  0  0  0  0
 33 61  1  0  0  0  0
M  END
> <PUBCHEM_COMPOUND_CID>
57990869

> <PUBCHEM_CONFORMER_RMSD>
1

> <PUBCHEM_CONFORMER_DIVERSEORDER>
4
2
18
30
37
10
21
12
36
34
23
14
13
8
28
32
11
26
33
7
16
15
6
17
31
27
24
19
25
3
35
29
22
20
1
9
5

> <PUBCHEM_MMFF94_PARTIAL_CHARGES>
43
1 -0.56
12 0.27
13 0.57
14 0.37
15 0.37
16 0.28
17 0.28
18 0.1
19 0.12
2 -0.57
20 -0.15
21 -0.15
22 -0.15
23 -0.15
24 0.1
25 -0.15
26 -0.15
28 -0.15
29 -0.15
3 -0.9
30 0.31
31 0.72
32 -0.15
33 0.16
4 -0.84
41 0.36
46 0.37
5 -0.55
51 0.15
52 0.15
53 0.15
54 0.15
55 0.15
56 0.15
57 0.15
58 0.15
59 0.4
6 -0.6
60 0.15
61 0.15
7 -0.62
8 -0.62
9 0.33

> <PUBCHEM_EFFECTIVE_ROTOR_COUNT>
9.2

> <PUBCHEM_PHARMACOPHORE_FEATURES>
14
1 1 acceptor
1 2 acceptor
1 3 cation
1 3 donor
1 4 cation
1 5 donor
1 6 donor
1 7 acceptor
4 6 7 8 31 cation
5 3 9 10 11 12 rings
6 1 4 14 15 16 17 rings
6 18 20 21 24 25 26 rings
6 19 22 23 27 28 29 rings
6 7 8 30 31 32 33 rings

> <PUBCHEM_HEAVY_ATOM_COUNT>
33

> <PUBCHEM_ATOM_DEF_STEREO_COUNT>
1

> <PUBCHEM_ATOM_UDEF_STEREO_COUNT>
0

> <PUBCHEM_BOND_DEF_STEREO_COUNT>
0

> <PUBCHEM_BOND_UDEF_STEREO_COUNT>
0

> <PUBCHEM_ISOTOPIC_ATOM_COUNT>
0

> <PUBCHEM_COMPONENT_COUNT>
1

> <PUBCHEM_CACTVS_TAUTO_COUNT>
81

> <PUBCHEM_CONFORMER_ID>
0374DED500000004

> <PUBCHEM_MMFF94_ENERGY>
117.087

> <PUBCHEM_FEATURE_SELFOVERLAP>
71.048

> <PUBCHEM_SHAPE_FINGERPRINT>
10258705 36 17971481947602523307
10319688 140 18336829822403802140
10622 236 18413387635491813337
11059845 2 17559134077200159041
11146346 29 18411992368411647662
11409948 35 18409726301576031343
11409948 41 18126267874429113799
117089 54 18339367370586521622
11761917 116 18339651032403063630
12107183 9 18342471331104522737
12559416 138 18341038628672250414
12655387 17 18340502058586932125
13248334 5 18122908891227144801
13533116 47 18195809798352082321
1361 4 18338803291647369750
1361 87 17603881034584822235
13782708 43 18187356684422100903
13785724 45 18411703205543215621
13911852 28 18410572911816263829
13947947 140 18189055291631312383
13989917 61 18193560201297359923
14040222 275 18267043729110182766
14904385 45 18336539503952454211
15152005 1 18342458097556448958
15400415 2 17257651648097428629
15467298 65 17695335272247305511
16728300 4 18273215305378128917
17492 89 18337671915461980932
19301679 30 18342461404527083956
19319366 153 18192717971934397332
19841028 212 18409445890690972123
208703 8 18338229371867329042
21130935 74 18195530527273518635
21133410 58 18267014137123299151
23523788 1 18124843903638409352
23524908 199 18265037190036870511
23569914 152 18051094101213149717
24893989 43 17556024928324858702
255183 451 18411985762772336356
27425 322 7853580110186566665
2748736 6 9222940444524494490
2835820 82 18410856607544352059
3991529 202 18263949734171519299
44344687 77 18187092780120084787
44880168 125 17131551627392706542
46194498 28 17387402652415586885
474113 269 18272644667781401031
4756326 101 14201977808483341790
484985 159 18048313345237016292
5309563 4 18410573959444950962
56633871 153 18201996642384734311
57634706 280 12031522012124827725
6057620 51 18335149696281012524
6201460 15 17829322493937601050
636783 213 17988073517392795935
6441014 3 18267302024185229258
70251023 43 18335982059962652752
7970288 3 18410572890319945090
9555976 147 17560819692950029449
9831232 110 18189897711333066781
9980921 52 17915437584659621327

> <PUBCHEM_SHAPE_MULTIPOLES>
637.5
23.61
7.11
1.14
25.45
3.52
0.06
-40.61
0.66
-8.74
-0.35
0.42
-0.76
-0.42

> <PUBCHEM_SHAPE_SELFOVERLAP>
1385.698

> <PUBCHEM_SHAPE_VOLUME>
345.1

> <PUBCHEM_COORDINATE_TYPE>
2
5
10

$$$$
118029202
  -OEChem-11282412143D

 77 80  0     0  0  0  0  0  0999 V2000
    0.8590   -1.1591    2.4079 Cl  0  0  0  0  0  0  0  0  0  0  0  0
    2.9233   -3.4328   -2.0840 Cl  0  0  0  0  0  0  0  0  0  0  0  0
   -2.7554    4.9000    0.8064 O   0  0  0  0  0  0  0  0  0  0  0  0
    3.8399   -1.9388    2.2222 O   0  0  0  0  0  0  0  0  0  0  0  0
    0.5636   -5.2265   -1.8365 O   0  0  0  0  0  0  0  0  0  0  0  0
   -1.2309   -3.2494    2.0822 O   0  0  0  0  0  0  0  0  0  0  0  0
   -5.8355   -0.9532   -0.4203 N   0  0  0  0  0  0  0  0  0  0  0  0
   -3.3187    0.3975   -0.4058 N   0  0  0  0  0  0  0  0  0  0  0  0
   -0.5810    4.3393    0.1036 N   0  0  0  0  0  0  0  0  0  0  0  0
    1.6677    2.9064   -0.8806 N   0  0  0  0  0  0  0  0  0  0  0  0
    3.9511    3.0120   -1.5167 N   0  0  0  0  0  0  0  0  0  0  0  0
    4.7693   -0.2281    0.9086 N   0  0  0  0  0  0  0  0  0  0  0  0
    5.5193    1.4245   -0.6066 N   0  0  0  0  0  0  0  0  0  0  0  0
    2.8441   -1.4617    0.1778 N   0  0  0  0  0  0  0  0  0  0  0  0
   -5.7768    0.5083   -0.5461 C   0  0  0  0  0  0  0  0  0  0  0  0
   -4.7440   -1.4244    0.4408 C   0  0  0  0  0  0  0  0  0  0  0  0
   -4.4481    0.9534   -1.1616 C   0  0  0  0  0  0  0  0  0  0  0  0
   -3.3804   -1.0432   -0.1408 C   0  0  0  0  0  0  0  0  0  0  0  0
   -7.1300   -1.3701    0.1178 C   0  0  0  0  0  0  0  0  0  0  0  0
   -2.0754    1.0292   -0.5218 C   0  0  0  0  0  0  0  0  0  0  0  0
   -7.2241   -2.8836    0.2112 C   0  0  0  0  0  0  0  0  0  0  0  0
   -1.9360    2.3676   -0.1544 C   0  0  0  0  0  0  0  0  0  0  0  0
   -0.9758    0.3205   -1.0055 C   0  0  0  0  0  0  0  0  0  0  0  0
   -0.6967    2.9972   -0.2705 C   0  0  0  0  0  0  0  0  0  0  0  0
    0.2634    0.9503   -1.1218 C   0  0  0  0  0  0  0  0  0  0  0  0
    0.4031    2.2886   -0.7542 C   0  0  0  0  0  0  0  0  0  0  0  0
    2.9812    2.4103   -0.7973 C   0  0  0  0  0  0  0  0  0  0  0  0
   -1.5806    5.1829    0.6026 C   0  0  0  0  0  0  0  0  0  0  0  0
    3.1996    1.3264    0.0283 C   0  0  0  0  0  0  0  0  0  0  0  0
    4.5012    0.8714    0.0849 C   0  0  0  0  0  0  0  0  0  0  0  0
   -1.0543    6.5502    0.8832 C   0  0  0  0  0  0  0  0  0  0  0  0
    5.1785    2.4757   -1.3762 C   0  0  0  0  0  0  0  0  0  0  0  0
    3.7952   -1.2708    1.1880 C   0  0  0  0  0  0  0  0  0  0  0  0
    6.1439   -0.4028    1.4709 C   0  0  0  0  0  0  0  0  0  0  0  0
   -1.8505    7.6192    0.7826 C   0  0  0  0  0  0  0  0  0  0  0  0
    1.7783   -2.3937    0.1596 C   0  0  0  0  0  0  0  0  0  0  0  0
    0.7955   -2.3486    1.1485 C   0  0  0  0  0  0  0  0  0  0  0  0
    1.7103   -3.3559   -0.8478 C   0  0  0  0  0  0  0  0  0  0  0  0
    0.6595   -4.2730   -0.8665 C   0  0  0  0  0  0  0  0  0  0  0  0
   -0.2551   -3.2659    1.1300 C   0  0  0  0  0  0  0  0  0  0  0  0
   -0.3232   -4.2281    0.1224 C   0  0  0  0  0  0  0  0  0  0  0  0
   -0.1648   -4.8816   -3.0125 C   0  0  0  0  0  0  0  0  0  0  0  0
   -1.0097   -4.0395    3.2483 C   0  0  0  0  0  0  0  0  0  0  0  0
   -5.9060    0.9882    0.4335 H   0  0  0  0  0  0  0  0  0  0  0  0
   -6.5888    0.8623   -1.1929 H   0  0  0  0  0  0  0  0  0  0  0  0
   -4.7368   -2.5154    0.5292 H   0  0  0  0  0  0  0  0  0  0  0  0
   -4.8410   -1.0110    1.4539 H   0  0  0  0  0  0  0  0  0  0  0  0
   -4.3838    0.6154   -2.2041 H   0  0  0  0  0  0  0  0  0  0  0  0
   -4.4308    2.0491   -1.1777 H   0  0  0  0  0  0  0  0  0  0  0  0
   -2.6116   -1.3312    0.5848 H   0  0  0  0  0  0  0  0  0  0  0  0
   -3.2040   -1.6037   -1.0679 H   0  0  0  0  0  0  0  0  0  0  0  0
   -7.3249   -0.9277    1.1029 H   0  0  0  0  0  0  0  0  0  0  0  0
   -7.9246   -1.0256   -0.5556 H   0  0  0  0  0  0  0  0  0  0  0  0
   -6.6494   -3.2886    1.0497 H   0  0  0  0  0  0  0  0  0  0  0  0
   -8.2672   -3.1743    0.3793 H   0  0  0  0  0  0  0  0  0  0  0  0
   -6.8960   -3.3693   -0.7142 H   0  0  0  0  0  0  0  0  0  0  0  0
   -2.8192    2.8524    0.2341 H   0  0  0  0  0  0  0  0  0  0  0  0
   -1.0529   -0.7159   -1.3216 H   0  0  0  0  0  0  0  0  0  0  0  0
    1.0914    0.3821   -1.5359 H   0  0  0  0  0  0  0  0  0  0  0  0
    0.3502    4.7358   -0.0019 H   0  0  0  0  0  0  0  0  0  0  0  0
    1.6194    3.8090   -1.3448 H   0  0  0  0  0  0  0  0  0  0  0  0
    2.4120    0.9331    0.6570 H   0  0  0  0  0  0  0  0  0  0  0  0
   -0.0038    6.6647    1.1271 H   0  0  0  0  0  0  0  0  0  0  0  0
    5.9767    2.9394   -1.9427 H   0  0  0  0  0  0  0  0  0  0  0  0
    6.4196    0.5069    2.0120 H   0  0  0  0  0  0  0  0  0  0  0  0
    6.8388   -0.5807    0.6450 H   0  0  0  0  0  0  0  0  0  0  0  0
    6.1790   -1.2572    2.1512 H   0  0  0  0  0  0  0  0  0  0  0  0
   -1.4545    8.6121    0.9671 H   0  0  0  0  0  0  0  0  0  0  0  0
   -2.8984    7.5370    0.5156 H   0  0  0  0  0  0  0  0  0  0  0  0
    3.1996   -1.2407   -0.7506 H   0  0  0  0  0  0  0  0  0  0  0  0
   -1.1427   -4.9427    0.1078 H   0  0  0  0  0  0  0  0  0  0  0  0
   -0.0741   -5.7057   -3.7254 H   0  0  0  0  0  0  0  0  0  0  0  0
   -1.2239   -4.7416   -2.7738 H   0  0  0  0  0  0  0  0  0  0  0  0
    0.2353   -3.9740   -3.4750 H   0  0  0  0  0  0  0  0  0  0  0  0
   -1.0123   -5.1032    2.9901 H   0  0  0  0  0  0  0  0  0  0  0  0
   -0.0643   -3.7760    3.7325 H   0  0  0  0  0  0  0  0  0  0  0  0
   -1.8263   -3.8492    3.9501 H   0  0  0  0  0  0  0  0  0  0  0  0
  1 37  1  0  0  0  0
  2 38  1  0  0  0  0
  3 28  2  0  0  0  0
  4 33  2  0  0  0  0
  5 39  1  0  0  0  0
  5 42  1  0  0  0  0
  6 40  1  0  0  0  0
  6 43  1  0  0  0  0
  7 15  1  0  0  0  0
  7 16  1  0  0  0  0
  7 19  1  0  0  0  0
  8 17  1  0  0  0  0
  8 18  1  0  0  0  0
  8 20  1  0  0  0  0
  9 24  1  0  0  0  0
  9 28  1  0  0  0  0
  9 60  1  0  0  0  0
 10 26  1  0  0  0  0
 10 27  1  0  0  0  0
 10 61  1  0  0  0  0
 11 27  1  0  0  0  0
 11 32  2  0  0  0  0
 12 30  1  0  0  0  0
 12 33  1  0  0  0  0
 12 34  1  0  0  0  0
 13 30  2  0  0  0  0
 13 32  1  0  0  0  0
 14 33  1  0  0  0  0
 14 36  1  0  0  0  0
 14 70  1  0  0  0  0
 15 17  1  0  0  0  0
 15 44  1  0  0  0  0
 15 45  1  0  0  0  0
 16 18  1  0  0  0  0
 16 46  1  0  0  0  0
 16 47  1  0  0  0  0
 17 48  1  0  0  0  0
 17 49  1  0  0  0  0
 18 50  1  0  0  0  0
 18 51  1  0  0  0  0
 19 21  1  0  0  0  0
 19 52  1  0  0  0  0
 19 53  1  0  0  0  0
 20 22  2  0  0  0  0
 20 23  1  0  0  0  0
 21 54  1  0  0  0  0
 21 55  1  0  0  0  0
 21 56  1  0  0  0  0
 22 24  1  0  0  0  0
 22 57  1  0  0  0  0
 23 25  2  0  0  0  0
 23 58  1  0  0  0  0
 24 26  2  0  0  0  0
 25 26  1  0  0  0  0
 25 59  1  0  0  0  0
 27 29  2  0  0  0  0
 28 31  1  0  0  0  0
 29 30  1  0  0  0  0
 29 62  1  0  0  0  0
 31 35  2  0  0  0  0
 31 63  1  0  0  0  0
 32 64  1  0  0  0  0
 34 65  1  0  0  0  0
 34 66  1  0  0  0  0
 34 67  1  0  0  0  0
 35 68  1  0  0  0  0
 35 69  1  0  0  0  0
 36 37  2  0  0  0  0
 36 38  1  0  0  0  0
 37 40  1  0  0  0  0
 38 39  2  0  0  0  0
 39 41  1  0  0  0  0
 40 41  2  0  0  0  0
 41 71  1  0  0  0  0
 42 72  1  0  0  0  0
 42 73  1  0  0  0  0
 42 74  1  0  0  0  0
 43 75  1  0  0  0  0
 43 76  1  0  0  0  0
 43 77  1  0  0  0  0
M  END
> <PUBCHEM_COMPOUND_CID>
118029202

> <PUBCHEM_CONFORMER_RMSD>
1.4

> <PUBCHEM_CONFORMER_DIVERSEORDER>
17
9
3
70
33
59
48
53
46
32
13
27
7
55
72
44
68
67
56
6
49
25
57
69
39
16
63
28
62
65
71
45
37
14
40
64
29
24
50
73
38
66
35
36
20
51
41
18
42
23
60
52
34
30
22
43
10
31
47
5
12
61
54
26
58
8
19
4
2
1
11
21
15

> <PUBCHEM_MMFF94_PARTIAL_CHARGES>
54
1 -0.18
10 -0.6
11 -0.62
12 -0.48
13 -0.62
14 -0.55
15 0.27
16 0.27
17 0.37
18 0.37
19 0.27
2 -0.18
20 0.1
22 -0.15
23 -0.15
24 0.12
25 -0.15
26 0.1
27 0.41
28 0.62
29 -0.15
3 -0.57
30 0.43
31 -0.14
32 0.47
33 0.69
34 0.3
35 -0.3
36 0.12
37 0.18
38 0.18
39 0.08
4 -0.57
40 0.08
41 -0.15
42 0.28
43 0.28
5 -0.36
57 0.15
58 0.15
59 0.15
6 -0.36
60 0.37
61 0.4
62 0.15
63 0.15
64 0.15
68 0.15
69 0.15
7 -0.81
70 0.37
71 0.15
8 -0.84
9 -0.55

> <PUBCHEM_EFFECTIVE_ROTOR_COUNT>
14.2

> <PUBCHEM_PHARMACOPHORE_FEATURES>
16
1 10 cation
1 10 donor
1 14 donor
1 3 acceptor
1 35 hydrophobe
1 4 acceptor
1 5 acceptor
1 6 acceptor
1 7 cation
1 8 cation
1 9 donor
3 11 13 32 cation
6 11 13 27 29 30 32 rings
6 20 22 23 24 25 26 rings
6 36 37 38 39 40 41 rings
6 7 8 15 16 17 18 rings

> <PUBCHEM_HEAVY_ATOM_COUNT>
43

> <PUBCHEM_ATOM_DEF_STEREO_COUNT>
0

> <PUBCHEM_ATOM_UDEF_STEREO_COUNT>
0

> <PUBCHEM_BOND_DEF_STEREO_COUNT>
0

> <PUBCHEM_BOND_UDEF_STEREO_COUNT>
0

> <PUBCHEM_ISOTOPIC_ATOM_COUNT>
0

> <PUBCHEM_COMPONENT_COUNT>
1

> <PUBCHEM_CACTVS_TAUTO_COUNT>
66

> <PUBCHEM_CONFORMER_ID>
0708FB9200000011

> <PUBCHEM_MMFF94_ENERGY>
193.1999

> <PUBCHEM_FEATURE_SELFOVERLAP>
81.203

> <PUBCHEM_SHAPE_FINGERPRINT>
11204353 107 17688599672346696084
11421498 54 18342738503264845129
12608794 3 14732262726688644883
12788726 201 18411425020485443612
140371 6 18121770639494616221
14068700 686 18200021820632311848
14394314 77 18268145534044837873
14725015 67 18187912972253537610
15351339 4 18187918500240964217
15538507 32 18195809793783009680
15927050 60 17547291567547463253
15968369 153 18341609369563756078
161222 619 18263382385522914715
19301679 30 18339930290859819561
19319366 153 17822843312226777658
20737093 15 17907815723254408623
20775438 99 17253387281799114685
21133410 90 17558834128851241642
21197605 99 18262801903423573355
21792965 302 16612800688599369950
463206 1 18192146207847623645
50080093 196 17897725349467038097
6004065 56 18338793550518883783
9896288 288 18197491831861578400

> <PUBCHEM_SHAPE_MULTIPOLES>
825.33
11.96
10.14
2.11
9.74
12.89
-0.57
-2.11
-0.03
4.17
-0.44
-1.29
-3.06
-0.84

> <PUBCHEM_SHAPE_SELFOVERLAP>
1733.081

> <PUBCHEM_SHAPE_VOLUME>
465.1

> <PUBCHEM_COORDINATE_TYPE>
2
5
10

$$$$
134391533
  -OEChem-11282412143D

 59 62  0     0  0  0  0  0  0999 V2000
    8.6606    3.1392    0.1520 F   0  0  0  0  0  0  0  0  0  0  0  0
    6.5162    2.7639    0.0274 F   0  0  0  0  0  0  0  0  0  0  0  0
    7.6035    2.3037    1.8581 F   0  0  0  0  0  0  0  0  0  0  0  0
    5.8346   -1.5879    1.4541 O   0  0  0  0  0  0  0  0  0  0  0  0
    3.0155   -1.1662   -1.8168 O   0  0  0  0  0  0  0  0  0  0  0  0
   -8.9621   -0.2584    1.5753 O   0  0  0  0  0  0  0  0  0  0  0  0
   -9.1620    2.0698    0.0711 O   0  0  0  0  0  0  0  0  0  0  0  0
    6.9861   -0.8108    1.4173 N   0  0  0  0  0  0  0  0  0  0  0  0
    3.8553   -2.0157    0.2049 N   0  0  0  0  0  0  0  0  0  0  0  0
   -1.5235   -1.2448   -1.6390 N   0  0  0  0  0  0  0  0  0  0  0  0
   -4.6042    1.6742   -1.2261 N   0  0  0  0  0  0  0  0  0  0  0  0
    7.9511    0.8497   -0.0737 C   0  0  0  0  0  0  0  0  0  0  0  0
    6.8856   -0.0972    0.2923 C   0  0  0  0  0  0  0  0  0  0  0  0
    7.6833    2.2764    0.5069 C   0  0  0  0  0  0  0  0  0  0  0  0
    8.1144    1.0117   -1.6277 C   0  0  0  0  0  0  0  0  0  0  0  0
    9.3969    0.4677    0.4232 C   0  0  0  0  0  0  0  0  0  0  0  0
    5.7039   -0.3789   -0.4148 C   0  0  0  0  0  0  0  0  0  0  0  0
    5.0792   -1.3219    0.3579 C   0  0  0  0  0  0  0  0  0  0  0  0
    1.7415   -2.8262   -0.6212 C   0  0  0  0  0  0  0  0  0  0  0  0
    2.9366   -1.8978   -0.8350 C   0  0  0  0  0  0  0  0  0  0  0  0
    0.4352   -2.1221   -0.5260 C   0  0  0  0  0  0  0  0  0  0  0  0
   -5.5624    0.0087    0.2283 C   0  0  0  0  0  0  0  0  0  0  0  0
   -3.2474   -0.1646   -0.4471 C   0  0  0  0  0  0  0  0  0  0  0  0
   -1.9702   -0.8370   -0.4300 C   0  0  0  0  0  0  0  0  0  0  0  0
   -5.6552    1.1893   -0.5381 C   0  0  0  0  0  0  0  0  0  0  0  0
   -4.3322   -0.6619    0.2606 C   0  0  0  0  0  0  0  0  0  0  0  0
   -0.0576   -1.6876    0.6995 C   0  0  0  0  0  0  0  0  0  0  0  0
   -1.2825   -1.0320    0.7570 C   0  0  0  0  0  0  0  0  0  0  0  0
   -6.6795   -0.4689    0.9341 C   0  0  0  0  0  0  0  0  0  0  0  0
   -0.3294   -1.8784   -1.6555 C   0  0  0  0  0  0  0  0  0  0  0  0
   -6.8774    1.8553   -0.5694 C   0  0  0  0  0  0  0  0  0  0  0  0
   -3.4346    0.9969   -1.1687 C   0  0  0  0  0  0  0  0  0  0  0  0
   -7.8896    0.2173    0.8851 C   0  0  0  0  0  0  0  0  0  0  0  0
   -7.9882    1.3809    0.1326 C   0  0  0  0  0  0  0  0  0  0  0  0
   -8.7725   -1.4595    2.3218 C   0  0  0  0  0  0  0  0  0  0  0  0
  -10.0688    1.7130   -0.9704 C   0  0  0  0  0  0  0  0  0  0  0  0
    8.9373    1.6902   -1.8797 H   0  0  0  0  0  0  0  0  0  0  0  0
    8.3190    0.0434   -2.0993 H   0  0  0  0  0  0  0  0  0  0  0  0
    7.2052    1.4200   -2.0833 H   0  0  0  0  0  0  0  0  0  0  0  0
   10.1502    1.1878    0.0848 H   0  0  0  0  0  0  0  0  0  0  0  0
    9.6816   -0.5222    0.0479 H   0  0  0  0  0  0  0  0  0  0  0  0
    9.4387    0.4309    1.5178 H   0  0  0  0  0  0  0  0  0  0  0  0
    5.3553    0.0428   -1.3455 H   0  0  0  0  0  0  0  0  0  0  0  0
    3.6613   -2.6643    0.9634 H   0  0  0  0  0  0  0  0  0  0  0  0
    1.8820   -3.4553    0.2664 H   0  0  0  0  0  0  0  0  0  0  0  0
    1.7307   -3.5291   -1.4649 H   0  0  0  0  0  0  0  0  0  0  0  0
   -4.2325   -1.5786    0.8399 H   0  0  0  0  0  0  0  0  0  0  0  0
    0.5051   -1.8519    1.6143 H   0  0  0  0  0  0  0  0  0  0  0  0
   -6.5413   -1.3824    1.5045 H   0  0  0  0  0  0  0  0  0  0  0  0
   -1.6679   -0.6872    1.7113 H   0  0  0  0  0  0  0  0  0  0  0  0
    0.0018   -2.1916   -2.6409 H   0  0  0  0  0  0  0  0  0  0  0  0
   -6.9727    2.7695   -1.1536 H   0  0  0  0  0  0  0  0  0  0  0  0
   -2.6311    1.4474   -1.7446 H   0  0  0  0  0  0  0  0  0  0  0  0
   -8.5334   -2.3066    1.6698 H   0  0  0  0  0  0  0  0  0  0  0  0
   -8.0354   -1.3260    3.1210 H   0  0  0  0  0  0  0  0  0  0  0  0
   -9.7270   -1.6913    2.8059 H   0  0  0  0  0  0  0  0  0  0  0  0
  -10.9573    2.3441   -0.8823 H   0  0  0  0  0  0  0  0  0  0  0  0
  -10.3725    0.6657   -0.8753 H   0  0  0  0  0  0  0  0  0  0  0  0
   -9.6132    1.8847   -1.9508 H   0  0  0  0  0  0  0  0  0  0  0  0
  1 14  1  0  0  0  0
  2 14  1  0  0  0  0
  3 14  1  0  0  0  0
  4  8  1  0  0  0  0
  4 18  1  0  0  0  0
  5 20  2  0  0  0  0
  6 33  1  0  0  0  0
  6 35  1  0  0  0  0
  7 34  1  0  0  0  0
  7 36  1  0  0  0  0
  8 13  2  0  0  0  0
  9 18  1  0  0  0  0
  9 20  1  0  0  0  0
  9 44  1  0  0  0  0
 10 24  2  0  0  0  0
 10 30  1  0  0  0  0
 11 25  2  0  0  0  0
 11 32  1  0  0  0  0
 12 13  1  0  0  0  0
 12 14  1  0  0  0  0
 12 15  1  0  0  0  0
 12 16  1  0  0  0  0
 13 17  1  0  0  0  0
 15 37  1  0  0  0  0
 15 38  1  0  0  0  0
 15 39  1  0  0  0  0
 16 40  1  0  0  0  0
 16 41  1  0  0  0  0
 16 42  1  0  0  0  0
 17 18  2  0  0  0  0
 17 43  1  0  0  0  0
 19 20  1  0  0  0  0
 19 21  1  0  0  0  0
 19 45  1  0  0  0  0
 19 46  1  0  0  0  0
 21 27  1  0  0  0  0
 21 30  2  0  0  0  0
 22 25  1  0  0  0  0
 22 26  2  0  0  0  0
 22 29  1  0  0  0  0
 23 24  1  0  0  0  0
 23 26  1  0  0  0  0
 23 32  2  0  0  0  0
 24 28  1  0  0  0  0
 25 31  1  0  0  0  0
 26 47  1  0  0  0  0
 27 28  2  0  0  0  0
 27 48  1  0  0  0  0
 28 50  1  0  0  0  0
 29 33  2  0  0  0  0
 29 49  1  0  0  0  0
 30 51  1  0  0  0  0
 31 34  2  0  0  0  0
 31 52  1  0  0  0  0
 32 53  1  0  0  0  0
 33 34  1  0  0  0  0
 35 54  1  0  0  0  0
 35 55  1  0  0  0  0
 35 56  1  0  0  0  0
 36 57  1  0  0  0  0
 36 58  1  0  0  0  0
 36 59  1  0  0  0  0
M  END
> <PUBCHEM_COMPOUND_CID>
134391533

> <PUBCHEM_CONFORMER_RMSD>
1.2

> <PUBCHEM_CONFORMER_DIVERSEORDER>
3
30
7
27
51
26
36
64
70
52
40
1
63
54
32
53
22
59
12
66
29
16
56
46
10
37
67
47
62
25
21
2
68
34
18
13
28
41
48
43
20
55
42
57
39
5
6
17
60
71
4
50
15
45
23
19
33
24
8
38
61
9
65
69
49
35
44
14
31
11
58

> <PUBCHEM_MMFF94_PARTIAL_CHARGES>
41
1 -0.34
10 -0.62
11 -0.62
12 0.18
13 0.11
14 1.02
17 -0.15
18 0.2
19 0.2
2 -0.34
20 0.57
21 -0.14
24 0.31
25 0.31
26 -0.15
27 -0.15
28 -0.15
29 -0.15
3 -0.34
30 0.16
31 -0.15
32 0.16
33 0.08
34 0.08
35 0.28
36 0.28
4 -0.02
43 0.15
44 0.37
47 0.15
48 0.15
49 0.15
5 -0.57
50 0.15
51 0.15
52 0.15
53 0.15
6 -0.36
7 -0.36
8 -0.41
9 -0.49

> <PUBCHEM_EFFECTIVE_ROTOR_COUNT>
9

> <PUBCHEM_PHARMACOPHORE_FEATURES>
12
1 10 acceptor
1 11 acceptor
1 5 acceptor
1 6 acceptor
1 7 acceptor
1 8 acceptor
1 9 donor
3 12 15 16 hydrophobe
5 4 8 13 17 18 rings
6 10 21 24 27 28 30 rings
6 11 22 23 25 26 32 rings
6 22 25 29 31 33 34 rings

> <PUBCHEM_HEAVY_ATOM_COUNT>
36

> <PUBCHEM_ATOM_DEF_STEREO_COUNT>
0

> <PUBCHEM_ATOM_UDEF_STEREO_COUNT>
0

> <PUBCHEM_BOND_DEF_STEREO_COUNT>
0

> <PUBCHEM_BOND_UDEF_STEREO_COUNT>
0

> <PUBCHEM_ISOTOPIC_ATOM_COUNT>
0

> <PUBCHEM_COMPONENT_COUNT>
1

> <PUBCHEM_CACTVS_TAUTO_COUNT>
19

> <PUBCHEM_CONFORMER_ID>
0802A6ED00000003

> <PUBCHEM_MMFF94_ENERGY>
118.5221

> <PUBCHEM_FEATURE_SELFOVERLAP>
60.936

> <PUBCHEM_SHAPE_FINGERPRINT>
10 15 18333732407494874079
10055352 69 18343300413904427595
10066227 49 8934999269947757505
10319688 67 16950284017890299642
10533779 1 18130213970142920512
10917259 69 9006518095501091807
10930396 42 17240480300164707677
11386260 185 13686288106981175922
11409948 8 18335149726303832707
11456790 92 14418425360734033469
11578821 258 18341894040155358633
11966995 178 18411708664984569870
12013929 112 13686026375720606833
12098696 120 18272651259875809016
12522641 24 17968934163942784826
12539765 74 18131635569420127142
12592606 108 9007057967565680494
14216079 64 8214140768117970454
14359421 15 11455900148254264436
14537116 161 16989122055045400704
14617042 71 18271808991161827225
14664723 55 17632305570710371614
15064981 194 16916502695669063255
15347590 135 16081080464240798052
15392192 104 16515696550340309330
15419008 91 17896031045615330807
1577012 14 18343012307714951254
15840311 113 18409449159793717030
16992787 43 18131070432974456081
1754908 1 17313106345565824211
1754911 235 15410894046318836355
1768 4 18273498983293111219
17686467 74 18186523229123331131
17852330 31 17530954792797694274
17899979 19 18343305872481365825
18393751 57 18260544507098716142
19301679 30 12324511001323455914
19302320 297 18335136523574448684
2026 5 8574441919431080832
20505436 4 18272082795332917654
20609170 45 10734785404058298609
21130935 74 17823419297401174451
21344244 78 16153429429055539542
21585481 104 14045744828983627834
21779490 81 18187644639740376304
21895431 317 12612752419788776193
23576562 1 15553578826033923713
24771293 8 18335138704568373159
25269216 80 16916491662720747471
2851757 41 8358265864963771648
306946 40 17895184477707644621
3383291 50 13190344551807300560
3418910 222 18339092509991465105
3711267 37 18060426806494829657
3918712 181 17916294109003177944
406291 66 8214157261341493820
4112364 45 18041566944363882484
4258327 124 18060416928328420359
437795 160 17385731322454293299
4403749 210 18411982477766719071
474113 269 12107781925985892507
5080951 261 17095519647840730123
5109719 28 18411989043906038114
54583773 228 18131343147077635231
5718773 13 8574719009725781998
59682541 35 18187652414094898099
6081469 158 10447929468553535898
6126387 218 14851601073536589239
6201320 82 14619411620111087851
6204607 403 18202010940500311097
636775 72 18265615386982579117
6438161 24 8214140742464549070
9689198 14 18409449185215497138
9937071 3 8502654796520739412
9953998 17 17821449058732018459
9962374 69 14129349532585754146

> <PUBCHEM_SHAPE_MULTIPOLES>
675.64
37.94
2.85
1.55
1.84
0.82
0.14
27.07
11.31
3.31
-0.09
-0.53
-0.35
2.86

> <PUBCHEM_SHAPE_SELFOVERLAP>
1476.157

> <PUBCHEM_SHAPE_VOLUME>
371

> <PUBCHEM_COORDINATE_TYPE>
2
5
10

$$$$
154824631
  -OEChem-11282412143D

 69 73  0     0  0  0  0  0  0999 V2000
    4.8735    1.2379   -2.0420 Cl  0  0  0  0  0  0  0  0  0  0  0  0
   -6.8503   -3.7251   -1.5155 O   0  0  0  0  0  0  0  0  0  0  0  0
   -5.4254    1.3819   -0.0292 O   0  0  0  0  0  0  0  0  0  0  0  0
    6.2528    0.2170    0.4266 O   0  0  0  0  0  0  0  0  0  0  0  0
   -1.9799   -1.7265    2.0919 O   0  0  0  0  0  0  0  0  0  0  0  0
   -6.7596   -0.9110   -1.0978 N   0  0  0  0  0  0  0  0  0  0  0  0
   -3.8314   -0.5800    1.2003 N   0  0  0  0  0  0  0  0  0  0  0  0
    0.8695    1.3974    1.1368 N   0  0  0  0  0  0  0  0  0  0  0  0
   -1.6191    4.1795   -0.6504 N   0  0  0  0  0  0  0  0  0  0  0  0
    0.5656    3.4818    0.0889 N   0  0  0  0  0  0  0  0  0  0  0  0
    9.0387   -1.5037    0.4886 N   0  0  0  0  0  0  0  0  0  0  0  0
   -6.0315   -1.5477   -2.2042 C   0  0  0  0  0  0  0  0  0  0  0  0
   -7.9529   -1.6999   -0.7611 C   0  0  0  0  0  0  0  0  0  0  0  0
   -7.1250    0.4621   -1.4396 C   0  0  0  0  0  0  0  0  0  0  0  0
   -5.6715   -2.9824   -1.8291 C   0  0  0  0  0  0  0  0  0  0  0  0
   -7.5479   -3.1311   -0.4200 C   0  0  0  0  0  0  0  0  0  0  0  0
   -5.9243    1.3925   -1.3602 C   0  0  0  0  0  0  0  0  0  0  0  0
   -4.0780    1.5790    0.1273 C   0  0  0  0  0  0  0  0  0  0  0  0
   -3.2802    0.6153    0.7341 C   0  0  0  0  0  0  0  0  0  0  0  0
   -1.3523    2.0468    0.4134 C   0  0  0  0  0  0  0  0  0  0  0  0
   -3.5101    2.7705   -0.3333 C   0  0  0  0  0  0  0  0  0  0  0  0
   -2.1476    3.0276   -0.2013 C   0  0  0  0  0  0  0  0  0  0  0  0
   -1.9157    0.8460    0.8790 C   0  0  0  0  0  0  0  0  0  0  0  0
    0.0039    2.3393    0.5273 C   0  0  0  0  0  0  0  0  0  0  0  0
    2.2292    1.1010    0.9496 C   0  0  0  0  0  0  0  0  0  0  0  0
   -0.2914    4.3441   -0.4809 C   0  0  0  0  0  0  0  0  0  0  0  0
   -3.1741   -1.6448    1.8300 C   0  0  0  0  0  0  0  0  0  0  0  0
    2.8183    1.2874   -0.3008 C   0  0  0  0  0  0  0  0  0  0  0  0
    2.9911    0.6212    2.0150 C   0  0  0  0  0  0  0  0  0  0  0  0
    4.9312    0.5142    0.5793 C   0  0  0  0  0  0  0  0  0  0  0  0
    4.1693    0.9939   -0.4860 C   0  0  0  0  0  0  0  0  0  0  0  0
    4.3421    0.3279    1.8298 C   0  0  0  0  0  0  0  0  0  0  0  0
   -4.1193   -2.7454    2.1774 C   0  0  0  0  0  0  0  0  0  0  0  0
    6.6478   -1.1283    0.6865 C   0  0  0  0  0  0  0  0  0  0  0  0
    7.8486   -1.4563   -0.1512 C   0  0  0  0  0  0  0  0  0  0  0  0
   -3.6809   -3.8517    2.7860 C   0  0  0  0  0  0  0  0  0  0  0  0
    7.6873   -1.6899   -1.5073 C   0  0  0  0  0  0  0  0  0  0  0  0
    8.8202   -1.9914   -2.2551 C   0  0  0  0  0  0  0  0  0  0  0  0
   10.1172   -1.7998   -0.2706 C   0  0  0  0  0  0  0  0  0  0  0  0
   10.0623   -2.0494   -1.6324 C   0  0  0  0  0  0  0  0  0  0  0  0
   -6.6473   -1.5546   -3.1130 H   0  0  0  0  0  0  0  0  0  0  0  0
   -5.1008   -1.0176   -2.4286 H   0  0  0  0  0  0  0  0  0  0  0  0
   -8.6530   -1.7087   -1.6067 H   0  0  0  0  0  0  0  0  0  0  0  0
   -8.4678   -1.2652    0.1032 H   0  0  0  0  0  0  0  0  0  0  0  0
   -7.8603    0.8272   -0.7101 H   0  0  0  0  0  0  0  0  0  0  0  0
   -7.5958    0.5253   -2.4284 H   0  0  0  0  0  0  0  0  0  0  0  0
   -5.1825   -3.4771   -2.6743 H   0  0  0  0  0  0  0  0  0  0  0  0
   -4.9792   -3.0173   -0.9794 H   0  0  0  0  0  0  0  0  0  0  0  0
   -6.9243   -3.1745    0.4792 H   0  0  0  0  0  0  0  0  0  0  0  0
   -8.4415   -3.7344   -0.2300 H   0  0  0  0  0  0  0  0  0  0  0  0
   -6.2497    2.4129   -1.5950 H   0  0  0  0  0  0  0  0  0  0  0  0
   -5.1516    1.1180   -2.0879 H   0  0  0  0  0  0  0  0  0  0  0  0
   -4.1448    3.5228   -0.7991 H   0  0  0  0  0  0  0  0  0  0  0  0
   -1.2566    0.1223    1.3306 H   0  0  0  0  0  0  0  0  0  0  0  0
   -4.8349   -0.6694    1.0526 H   0  0  0  0  0  0  0  0  0  0  0  0
    0.4944    1.0210    2.0032 H   0  0  0  0  0  0  0  0  0  0  0  0
    0.1281    5.2740   -0.8449 H   0  0  0  0  0  0  0  0  0  0  0  0
    2.2292    1.6480   -1.1410 H   0  0  0  0  0  0  0  0  0  0  0  0
    2.5455    0.4740    2.9956 H   0  0  0  0  0  0  0  0  0  0  0  0
    4.9238   -0.0363    2.6722 H   0  0  0  0  0  0  0  0  0  0  0  0
   -5.1710   -2.6316    1.9436 H   0  0  0  0  0  0  0  0  0  0  0  0
    5.8408   -1.8379    0.4600 H   0  0  0  0  0  0  0  0  0  0  0  0
    6.8969   -1.2247    1.7499 H   0  0  0  0  0  0  0  0  0  0  0  0
   -4.3787   -4.6427    3.0403 H   0  0  0  0  0  0  0  0  0  0  0  0
   -2.6389   -4.0036    3.0443 H   0  0  0  0  0  0  0  0  0  0  0  0
    6.7135   -1.6438   -1.9827 H   0  0  0  0  0  0  0  0  0  0  0  0
    8.7354   -2.1811   -3.3209 H   0  0  0  0  0  0  0  0  0  0  0  0
   11.0618   -1.8327    0.2623 H   0  0  0  0  0  0  0  0  0  0  0  0
   10.9587   -2.2826   -2.1953 H   0  0  0  0  0  0  0  0  0  0  0  0
  1 31  1  0  0  0  0
  2 15  1  0  0  0  0
  2 16  1  0  0  0  0
  3 17  1  0  0  0  0
  3 18  1  0  0  0  0
  4 30  1  0  0  0  0
  4 34  1  0  0  0  0
  5 27  2  0  0  0  0
  6 12  1  0  0  0  0
  6 13  1  0  0  0  0
  6 14  1  0  0  0  0
  7 19  1  0  0  0  0
  7 27  1  0  0  0  0
  7 55  1  0  0  0  0
  8 24  1  0  0  0  0
  8 25  1  0  0  0  0
  8 56  1  0  0  0  0
  9 22  1  0  0  0  0
  9 26  2  0  0  0  0
 10 24  2  0  0  0  0
 10 26  1  0  0  0  0
 11 35  1  0  0  0  0
 11 39  2  0  0  0  0
 12 15  1  0  0  0  0
 12 41  1  0  0  0  0
 12 42  1  0  0  0  0
 13 16  1  0  0  0  0
 13 43  1  0  0  0  0
 13 44  1  0  0  0  0
 14 17  1  0  0  0  0
 14 45  1  0  0  0  0
 14 46  1  0  0  0  0
 15 47  1  0  0  0  0
 15 48  1  0  0  0  0
 16 49  1  0  0  0  0
 16 50  1  0  0  0  0
 17 51  1  0  0  0  0
 17 52  1  0  0  0  0
 18 19  2  0  0  0  0
 18 21  1  0  0  0  0
 19 23  1  0  0  0  0
 20 22  1  0  0  0  0
 20 23  2  0  0  0  0
 20 24  1  0  0  0  0
 21 22  2  0  0  0  0
 21 53  1  0  0  0  0
 23 54  1  0  0  0  0
 25 28  2  0  0  0  0
 25 29  1  0  0  0  0
 26 57  1  0  0  0  0
 27 33  1  0  0  0  0
 28 31  1  0  0  0  0
 28 58  1  0  0  0  0
 29 32  2  0  0  0  0
 29 59  1  0  0  0  0
 30 31  2  0  0  0  0
 30 32  1  0  0  0  0
 32 60  1  0  0  0  0
 33 36  2  0  0  0  0
 33 61  1  0  0  0  0
 34 35  1  0  0  0  0
 34 62  1  0  0  0  0
 34 63  1  0  0  0  0
 35 37  2  0  0  0  0
 36 64  1  0  0  0  0
 36 65  1  0  0  0  0
 37 38  1  0  0  0  0
 37 66  1  0  0  0  0
 38 40  2  0  0  0  0
 38 67  1  0  0  0  0
 39 40  1  0  0  0  0
 39 68  1  0  0  0  0
 40 69  1  0  0  0  0
M  END
> <PUBCHEM_COMPOUND_CID>
154824631

> <PUBCHEM_CONFORMER_RMSD>
1.2

> <PUBCHEM_CONFORMER_DIVERSEORDER>
1
79
108
59
97
60
99
63
103
48
111
45
84
72
110
37
75
95
32
101
40
113
90
100
64
16
115
66
41
67
52
85
73
117
51
23
120
106
30
53
15
7
49
8
118
91
71
86
55
3
46
21
112
29
26
81
83
33
20
114
80
77
9
74
92
116
109
104
82
89
39
54
31
98
96
88
25
47
78
57
65
69
50
27
68
61
107
38
119
18
6
12
17
35
19
87
70
34
43
13
58
2
22
14
36
102
4
93
5
42
62
28
105
11
76
44
10
56
94
24

> <PUBCHEM_MMFF94_PARTIAL_CHARGES>
54
1 -0.18
10 -0.62
11 -0.62
12 0.27
13 0.27
14 0.27
15 0.28
16 0.28
17 0.28
18 0.08
19 0.12
2 -0.56
21 -0.15
22 0.31
23 -0.15
24 0.41
25 0.1
26 0.47
27 0.62
28 -0.15
29 -0.15
3 -0.36
30 0.08
31 0.18
32 -0.15
33 -0.14
34 0.42
35 0.17
36 -0.3
37 -0.15
38 -0.15
39 0.16
4 -0.36
40 -0.15
5 -0.57
53 0.15
54 0.15
55 0.37
56 0.4
57 0.15
58 0.15
59 0.15
6 -0.81
60 0.15
61 0.15
64 0.15
65 0.15
66 0.15
67 0.15
68 0.15
69 0.15
7 -0.55
8 -0.6
9 -0.62

> <PUBCHEM_EFFECTIVE_ROTOR_COUNT>
13.2

> <PUBCHEM_PHARMACOPHORE_FEATURES>
16
1 11 acceptor
1 2 acceptor
1 3 acceptor
1 36 hydrophobe
1 4 acceptor
1 5 acceptor
1 6 cation
1 7 donor
1 8 donor
3 8 10 24 cation
3 9 10 26 cation
6 11 35 37 38 39 40 rings
6 18 19 20 21 22 23 rings
6 2 6 12 13 15 16 rings
6 25 28 29 30 31 32 rings
6 9 10 20 22 24 26 rings

> <PUBCHEM_HEAVY_ATOM_COUNT>
40

> <PUBCHEM_ATOM_DEF_STEREO_COUNT>
0

> <PUBCHEM_ATOM_UDEF_STEREO_COUNT>
0

> <PUBCHEM_BOND_DEF_STEREO_COUNT>
0

> <PUBCHEM_BOND_UDEF_STEREO_COUNT>
0

> <PUBCHEM_ISOTOPIC_ATOM_COUNT>
0

> <PUBCHEM_COMPONENT_COUNT>
1

> <PUBCHEM_CACTVS_TAUTO_COUNT>
-1

> <PUBCHEM_CONFORMER_ID>
093A6FB700000001

> <PUBCHEM_MMFF94_ENERGY>
138.7873

> <PUBCHEM_FEATURE_SELFOVERLAP>
81.371

> <PUBCHEM_SHAPE_FINGERPRINT>
10119406 146 18259703411226953683
10258705 36 17988927718000315430
10369192 42 11674881078500914337
11135609 201 9006789682844719609
11607047 74 18197493129649330408
117089 54 18412267254744397094
11828042 74 18260551121685734911
12013929 29 12398229927334521647
12124843 1 18041270071718217487
12645989 146 18412261757075176553
13383668 90 18261386720742507933
13782708 43 17989202672293010209
14068700 675 18341324587563214665
14415361 349 18334013852966112718
15145343 29 10807670955927391503
15274700 232 18413393124682200726
15392192 29 18334587815110076025
15448158 91 18272093790432532676
15510800 12 18131354102847961078
15776043 110 13614237054309644806
16126227 98 9079118873239379147
16628084 112 17897425226385828163
18603816 31 17917422112504537037
2026 5 18201442420470003150
20982279 24 16414927332293985214
21307412 95 18334293197701750737
22899556 105 18115007724293946051
23559900 14 18044648944297840841
23576562 1 17168427190030555821
23729417 116 18335978662912989220
354706 132 17530954775665440039
42767 24 18341901779511846134
4339292 15 18341889676589041098
437795 150 18041006167041829667
44280117 145 18341331098696757556
44802255 64 14706928432727555529
44880168 125 18200602504780824210
45377200 153 18202559584339408590
49967989 163 18113343028569573338
504579 68 17749108902826643414
5937810 71 13768203844662839661
6289498 60 10591759913457661142
636775 72 7781509334861682679

> <PUBCHEM_SHAPE_MULTIPOLES>
771.69
30.34
4.97
2.28
55.08
0.92
0.27
-34.25
-17.62
-7.15
-0.3
-0.84
-2.12
1.87

> <PUBCHEM_SHAPE_SELFOVERLAP>
1657.797

> <PUBCHEM_SHAPE_VOLUME>
422.7

> <PUBCHEM_COORDINATE_TYPE>
2
5
10

$$$$
72435
  -OEChem-11282412143D

 52 56  0     1  0  0  0  0  0999 V2000
    1.9112   -3.7921    1.3210 O   0  0  0  0  0  0  0  0  0  0  0  0
    1.7921   -1.2878   -2.6611 O   0  0  0  0  0  0  0  0  0  0  0  0
   -0.3610   -3.8025    1.6307 O   0  0  0  0  0  0  0  0  0  0  0  0
    2.5871    3.5152    1.2422 O   0  0  0  0  0  0  0  0  0  0  0  0
    4.2572    3.1155   -0.4473 O   0  0  0  0  0  0  0  0  0  0  0  0
   -3.0380    0.5280   -2.4967 O   0  0  0  0  0  0  0  0  0  0  0  0
   -3.9911    0.4112    2.1955 O   0  0  0  0  0  0  0  0  0  0  0  0
   -4.8057    0.9248   -0.4008 O   0  0  0  0  0  0  0  0  0  0  0  0
    1.9917   -2.5893   -0.6666 C   0  0  1  0  0  0  0  0  0  0  0  0
    0.6392   -2.3228   -0.0249 C   0  0  2  0  0  0  0  0  0  0  0  0
    0.4542   -0.9253    0.6214 C   0  0  1  0  0  0  0  0  0  0  0  0
    2.5519   -1.4176   -1.4581 C   0  0  2  0  0  0  0  0  0  0  0  0
    1.5119    0.1184    0.2797 C   0  0  0  0  0  0  0  0  0  0  0  0
    2.8292   -3.0550    0.5050 C   0  0  0  0  0  0  0  0  0  0  0  0
    2.5087   -0.1183   -0.6982 C   0  0  0  0  0  0  0  0  0  0  0  0
    0.6314   -3.3865    1.0521 C   0  0  0  0  0  0  0  0  0  0  0  0
   -0.9632   -0.4271    0.3455 C   0  0  0  0  0  0  0  0  0  0  0  0
    1.5050    1.3435    0.9782 C   0  0  0  0  0  0  0  0  0  0  0  0
    3.4632    0.8731   -0.9916 C   0  0  0  0  0  0  0  0  0  0  0  0
    2.4611    2.2879    0.6684 C   0  0  0  0  0  0  0  0  0  0  0  0
    3.4128    2.0598   -0.2927 C   0  0  0  0  0  0  0  0  0  0  0  0
   -1.8396   -0.2335    1.4053 C   0  0  0  0  0  0  0  0  0  0  0  0
   -1.3587   -0.1738   -0.9616 C   0  0  0  0  0  0  0  0  0  0  0  0
   -2.6532    0.2812   -1.2132 C   0  0  0  0  0  0  0  0  0  0  0  0
   -3.1340    0.2212    1.1537 C   0  0  0  0  0  0  0  0  0  0  0  0
   -3.5409    0.4787   -0.1555 C   0  0  0  0  0  0  0  0  0  0  0  0
    3.7274    4.0356    0.5288 C   0  0  0  0  0  0  0  0  0  0  0  0
   -3.6206   -0.5556   -3.2182 C   0  0  0  0  0  0  0  0  0  0  0  0
   -3.9975    1.7017    2.8024 C   0  0  0  0  0  0  0  0  0  0  0  0
   -4.9318    2.1913   -1.0433 C   0  0  0  0  0  0  0  0  0  0  0  0
    1.8673   -3.4485   -1.3436 H   0  0  0  0  0  0  0  0  0  0  0  0
   -0.1472   -2.5758   -0.7462 H   0  0  0  0  0  0  0  0  0  0  0  0
    0.5497   -1.0564    1.7106 H   0  0  0  0  0  0  0  0  0  0  0  0
    3.5865   -1.6424   -1.7454 H   0  0  0  0  0  0  0  0  0  0  0  0
    3.6397   -3.7171    0.1856 H   0  0  0  0  0  0  0  0  0  0  0  0
    3.2533   -2.2437    1.1053 H   0  0  0  0  0  0  0  0  0  0  0  0
    0.7656    1.5475    1.7464 H   0  0  0  0  0  0  0  0  0  0  0  0
    4.2244    0.7101   -1.7480 H   0  0  0  0  0  0  0  0  0  0  0  0
    1.9000   -2.1105   -3.1683 H   0  0  0  0  0  0  0  0  0  0  0  0
   -1.5302   -0.4328    2.4278 H   0  0  0  0  0  0  0  0  0  0  0  0
   -0.6747   -0.3205   -1.7926 H   0  0  0  0  0  0  0  0  0  0  0  0
    3.4303    4.9581    0.0168 H   0  0  0  0  0  0  0  0  0  0  0  0
    4.5160    4.2726    1.2522 H   0  0  0  0  0  0  0  0  0  0  0  0
   -2.9046   -1.3774   -3.3188 H   0  0  0  0  0  0  0  0  0  0  0  0
   -3.8862   -0.1985   -4.2170 H   0  0  0  0  0  0  0  0  0  0  0  0
   -4.5291   -0.9074   -2.7194 H   0  0  0  0  0  0  0  0  0  0  0  0
   -4.2815    2.4694    2.0760 H   0  0  0  0  0  0  0  0  0  0  0  0
   -3.0144    1.9309    3.2259 H   0  0  0  0  0  0  0  0  0  0  0  0
   -4.7338    1.6964    3.6108 H   0  0  0  0  0  0  0  0  0  0  0  0
   -4.0718    2.8421   -0.8499 H   0  0  0  0  0  0  0  0  0  0  0  0
   -5.8256    2.6819   -0.6468 H   0  0  0  0  0  0  0  0  0  0  0  0
   -5.0712    2.0539   -2.1192 H   0  0  0  0  0  0  0  0  0  0  0  0
  1 14  1  0  0  0  0
  1 16  1  0  0  0  0
  2 12  1  0  0  0  0
  2 39  1  0  0  0  0
  3 16  2  0  0  0  0
  4 20  1  0  0  0  0
  4 27  1  0  0  0  0
  5 21  1  0  0  0  0
  5 27  1  0  0  0  0
  6 24  1  0  0  0  0
  6 28  1  0  0  0  0
  7 25  1  0  0  0  0
  7 29  1  0  0  0  0
  8 26  1  0  0  0  0
  8 30  1  0  0  0  0
  9 10  1  0  0  0  0
  9 12  1  0  0  0  0
  9 14  1  0  0  0  0
  9 31  1  0  0  0  0
 10 11  1  0  0  0  0
 10 16  1  0  0  0  0
 10 32  1  0  0  0  0
 11 13  1  0  0  0  0
 11 17  1  0  0  0  0
 11 33  1  0  0  0  0
 12 15  1  0  0  0  0
 12 34  1  0  0  0  0
 13 15  1  0  0  0  0
 13 18  2  0  0  0  0
 14 35  1  0  0  0  0
 14 36  1  0  0  0  0
 15 19  2  0  0  0  0
 17 22  2  0  0  0  0
 17 23  1  0  0  0  0
 18 20  1  0  0  0  0
 18 37  1  0  0  0  0
 19 21  1  0  0  0  0
 19 38  1  0  0  0  0
 20 21  2  0  0  0  0
 22 25  1  0  0  0  0
 22 40  1  0  0  0  0
 23 24  2  0  0  0  0
 23 41  1  0  0  0  0
 24 26  1  0  0  0  0
 25 26  2  0  0  0  0
 27 42  1  0  0  0  0
 27 43  1  0  0  0  0
 28 44  1  0  0  0  0
 28 45  1  0  0  0  0
 28 46  1  0  0  0  0
 29 47  1  0  0  0  0
 29 48  1  0  0  0  0
 29 49  1  0  0  0  0
 30 50  1  0  0  0  0
 30 51  1  0  0  0  0
 30 52  1  0  0  0  0
M  END
> <PUBCHEM_COMPOUND_CID>
72435

> <PUBCHEM_CONFORMER_RMSD>
0.8

> <PUBCHEM_CONFORMER_DIVERSEORDER>
1
6
10
12
5
8
9
3
7
4
2
11

> <PUBCHEM_MMFF94_PARTIAL_CHARGES>
34
1 -0.43
10 0.06
11 0.29
12 0.42
13 -0.14
14 0.28
15 -0.14
16 0.66
17 -0.14
18 -0.15
19 -0.15
2 -0.68
20 0.08
21 0.08
22 -0.15
23 -0.15
24 0.08
25 0.08
26 0.08
27 0.56
28 0.28
29 0.28
3 -0.57
30 0.28
37 0.15
38 0.15
39 0.4
4 -0.36
40 0.15
41 0.15
5 -0.36
6 -0.36
7 -0.36
8 -0.36

> <PUBCHEM_EFFECTIVE_ROTOR_COUNT>
5.4

> <PUBCHEM_PHARMACOPHORE_FEATURES>
13
1 2 acceptor
1 2 donor
1 3 acceptor
1 4 acceptor
1 5 acceptor
1 6 acceptor
1 7 acceptor
1 8 acceptor
5 1 9 10 14 16 rings
5 4 5 20 21 27 rings
6 13 15 18 19 20 21 rings
6 17 22 23 24 25 26 rings
6 9 10 11 12 13 15 rings

> <PUBCHEM_HEAVY_ATOM_COUNT>
30

> <PUBCHEM_ATOM_DEF_STEREO_COUNT>
4

> <PUBCHEM_ATOM_UDEF_STEREO_COUNT>
0

> <PUBCHEM_BOND_DEF_STEREO_COUNT>
0

> <PUBCHEM_BOND_UDEF_STEREO_COUNT>
0

> <PUBCHEM_ISOTOPIC_ATOM_COUNT>
0

> <PUBCHEM_COMPONENT_COUNT>
1

> <PUBCHEM_CACTVS_TAUTO_COUNT>
2

> <PUBCHEM_CONFORMER_ID>
00011AF300000001

> <PUBCHEM_MMFF94_ENERGY>
115.8816

> <PUBCHEM_FEATURE_SELFOVERLAP>
66.367

> <PUBCHEM_SHAPE_FINGERPRINT>
10165383 225 17899171361881361398
105312 117 18120093038185693292
10906281 52 18129404699498558412
10930396 42 16685386666339851176
1100329 8 18409456886588023658
11049842 53 16126984980057964389
11115154 58 17181618829565607517
11578080 2 18041572347316714797
12160290 23 17548118383295719882
12549972 3 17459749207879429305
12553582 1 17980493260295813611
12730499 353 18335989731116088833
12788726 201 17403716235665212434
13134695 92 17974274439920023590
13140716 1 18266469874492688290
13149001 5 18124627312432471166
133893 2 18269255924602552858
13583140 156 18337963273099826217
14955137 171 18264496074938325546
15842332 3 17917986157848555271
16752209 62 16128086742602018077
17921350 177 17769107739125113221
17980427 23 17917414399054788762
17980427 26 18340218409517726523
1813 80 17770784507331933798
20600515 1 15873038338200822730
21033648 29 18188205515514775684
21120745 212 17255971066027870186
22122407 14 17981067236285145233
22907989 373 17263004057383445804
23559900 14 16951701185800615967
238 59 18272090517234630910
283562 15 17834671973845041923
340366 18 16986615064880103221
376196 1 18128529552071330528
469060 322 17679017360339589287
474 4 18271807960010746296
495365 180 18114457860466785487
513202 73 16975621975727635142
5252454 2 18116737233786018342
5895379 119 16915667968790617889
6086070 43 18123467173120041757
633830 44 18200890550909258224
6823239 73 16226905328098803279
7399639 24 18114752632899595731
7471813 234 18053087437646183446
81228 2 17467924407454917554

> <PUBCHEM_SHAPE_MULTIPOLES>
570.43
8.53
4.61
2.4
7.43
0.36
-0.8
-7.16
-1.32
-6.62
2.11
3.06
0.37
-0.25

> <PUBCHEM_SHAPE_SELFOVERLAP>
1269.473

> <PUBCHEM_SHAPE_VOLUME>
304.9

> <PUBCHEM_COORDINATE_TYPE>
2
5
10

$$$$
9874913
  -OEChem-11282412143D

 62 65  0     0  0  0  0  0  0999 V2000
    5.0572    0.7929   -1.0700 O   0  0  0  0  0  0  0  0  0  0  0  0
   -3.1811   -5.7822    0.8510 O   0  0  0  0  0  0  0  0  0  0  0  0
   -4.9341   -3.7394    0.8542 O   0  0  0  0  0  0  0  0  0  0  0  0
   -0.3637    1.9799   -0.8020 N   0  0  0  0  0  0  0  0  0  0  0  0
   -0.4647    4.0236    0.3587 N   0  0  0  0  0  0  0  0  0  0  0  0
   -2.4765    4.6886    1.5064 N   0  0  0  0  0  0  0  0  0  0  0  0
   -4.4866   -3.2118   -1.3679 N   0  0  0  0  0  0  0  0  0  0  0  0
    5.2706   -2.4088    0.7142 N   0  0  0  0  0  0  0  0  0  0  0  0
   -2.4154    2.5966    0.3358 C   0  0  0  0  0  0  0  0  0  0  0  0
   -1.1011    2.8965   -0.0114 C   0  0  0  0  0  0  0  0  0  0  0  0
    1.0056    1.6799   -0.8746 C   0  0  0  0  0  0  0  0  0  0  0  0
   -3.0822    3.5525    1.1194 C   0  0  0  0  0  0  0  0  0  0  0  0
   -3.0587    1.4120   -0.0630 C   0  0  0  0  0  0  0  0  0  0  0  0
   -4.3751    1.1729    0.3183 C   0  0  0  0  0  0  0  0  0  0  0  0
    2.9212    0.9401   -2.1475 C   0  0  0  0  0  0  0  0  0  0  0  0
    1.5607    1.2394   -2.0760 C   0  0  0  0  0  0  0  0  0  0  0  0
    3.7265    1.0811   -1.0174 C   0  0  0  0  0  0  0  0  0  0  0  0
   -4.3992    3.2874    1.4869 C   0  0  0  0  0  0  0  0  0  0  0  0
    1.8111    1.8208    0.2555 C   0  0  0  0  0  0  0  0  0  0  0  0
   -5.0458    2.1118    1.0941 C   0  0  0  0  0  0  0  0  0  0  0  0
    3.1715    1.5214    0.1842 C   0  0  0  0  0  0  0  0  0  0  0  0
   -5.0464   -0.0505   -0.0909 C   0  0  0  0  0  0  0  0  0  0  0  0
    3.4988    0.4706   -3.4415 C   0  0  0  0  0  0  0  0  0  0  0  0
   -1.2009    4.8626    1.1050 C   0  0  0  0  0  0  0  0  0  0  0  0
   -4.6808   -0.8465   -1.1219 C   0  0  0  0  0  0  0  0  0  0  0  0
   -5.3936   -2.1064   -1.4946 C   0  0  0  0  0  0  0  0  0  0  0  0
    5.5333   -0.1988   -0.2301 C   0  0  0  0  0  0  0  0  0  0  0  0
    6.7055   -0.0198    0.4962 C   0  0  0  0  0  0  0  0  0  0  0  0
    4.8590   -1.4007   -0.0872 C   0  0  0  0  0  0  0  0  0  0  0  0
    7.1611   -1.0339    1.3313 C   0  0  0  0  0  0  0  0  0  0  0  0
    6.4139   -2.1985    1.4043 C   0  0  0  0  0  0  0  0  0  0  0  0
   -4.3296   -3.9435   -0.1951 C   0  0  0  0  0  0  0  0  0  0  0  0
   -3.3083   -5.0502   -0.3494 C   0  0  0  0  0  0  0  0  0  0  0  0
    6.8728   -3.3078    2.2909 C   0  0  0  0  0  0  0  0  0  0  0  0
   -2.2249   -6.8319    0.7343 C   0  0  0  0  0  0  0  0  0  0  0  0
   -2.5142    0.6712   -0.6401 H   0  0  0  0  0  0  0  0  0  0  0  0
   -0.8939    1.6288   -1.5949 H   0  0  0  0  0  0  0  0  0  0  0  0
    0.9304    1.1304   -2.9559 H   0  0  0  0  0  0  0  0  0  0  0  0
   -4.9464    4.0064    2.0938 H   0  0  0  0  0  0  0  0  0  0  0  0
    1.4007    2.1505    1.2062 H   0  0  0  0  0  0  0  0  0  0  0  0
   -6.0754    1.9507    1.4050 H   0  0  0  0  0  0  0  0  0  0  0  0
    3.7859    1.6443    1.0723 H   0  0  0  0  0  0  0  0  0  0  0  0
   -5.9138   -0.3361    0.5008 H   0  0  0  0  0  0  0  0  0  0  0  0
    3.8745   -0.5529   -3.3407 H   0  0  0  0  0  0  0  0  0  0  0  0
    2.7559    0.4731   -4.2463 H   0  0  0  0  0  0  0  0  0  0  0  0
    4.3195    1.1252   -3.7532 H   0  0  0  0  0  0  0  0  0  0  0  0
   -0.7185    5.7797    1.4203 H   0  0  0  0  0  0  0  0  0  0  0  0
   -3.8410   -0.5847   -1.7599 H   0  0  0  0  0  0  0  0  0  0  0  0
   -5.7195   -2.0562   -2.5381 H   0  0  0  0  0  0  0  0  0  0  0  0
   -6.2731   -2.2824   -0.8663 H   0  0  0  0  0  0  0  0  0  0  0  0
   -3.9229   -3.4560   -2.1775 H   0  0  0  0  0  0  0  0  0  0  0  0
    7.2664    0.9068    0.4149 H   0  0  0  0  0  0  0  0  0  0  0  0
    3.9469   -1.6182   -0.6338 H   0  0  0  0  0  0  0  0  0  0  0  0
    8.0740   -0.9059    1.9029 H   0  0  0  0  0  0  0  0  0  0  0  0
   -2.3457   -4.5979   -0.6151 H   0  0  0  0  0  0  0  0  0  0  0  0
   -3.6352   -5.7136   -1.1586 H   0  0  0  0  0  0  0  0  0  0  0  0
    6.9208   -2.9690    3.3307 H   0  0  0  0  0  0  0  0  0  0  0  0
    6.1851   -4.1587    2.2446 H   0  0  0  0  0  0  0  0  0  0  0  0
    7.8631   -3.6572    1.9820 H   0  0  0  0  0  0  0  0  0  0  0  0
   -2.5302   -7.5422   -0.0401 H   0  0  0  0  0  0  0  0  0  0  0  0
   -1.2360   -6.4237    0.5045 H   0  0  0  0  0  0  0  0  0  0  0  0
   -2.1735   -7.3575    1.6915 H   0  0  0  0  0  0  0  0  0  0  0  0
  1 17  1  0  0  0  0
  1 27  1  0  0  0  0
  2 33  1  0  0  0  0
  2 35  1  0  0  0  0
  3 32  2  0  0  0  0
  4 10  1  0  0  0  0
  4 11  1  0  0  0  0
  4 37  1  0  0  0  0
  5 10  2  0  0  0  0
  5 24  1  0  0  0  0
  6 12  1  0  0  0  0
  6 24  2  0  0  0  0
  7 26  1  0  0  0  0
  7 32  1  0  0  0  0
  7 51  1  0  0  0  0
  8 29  1  0  0  0  0
  8 31  2  0  0  0  0
  9 10  1  0  0  0  0
  9 12  2  0  0  0  0
  9 13  1  0  0  0  0
 11 16  2  0  0  0  0
 11 19  1  0  0  0  0
 12 18  1  0  0  0  0
 13 14  2  0  0  0  0
 13 36  1  0  0  0  0
 14 20  1  0  0  0  0
 14 22  1  0  0  0  0
 15 16  1  0  0  0  0
 15 17  2  0  0  0  0
 15 23  1  0  0  0  0
 16 38  1  0  0  0  0
 17 21  1  0  0  0  0
 18 20  2  0  0  0  0
 18 39  1  0  0  0  0
 19 21  2  0  0  0  0
 19 40  1  0  0  0  0
 20 41  1  0  0  0  0
 21 42  1  0  0  0  0
 22 25  2  0  0  0  0
 22 43  1  0  0  0  0
 23 44  1  0  0  0  0
 23 45  1  0  0  0  0
 23 46  1  0  0  0  0
 24 47  1  0  0  0  0
 25 26  1  0  0  0  0
 25 48  1  0  0  0  0
 26 49  1  0  0  0  0
 26 50  1  0  0  0  0
 27 28  1  0  0  0  0
 27 29  2  0  0  0  0
 28 30  2  0  0  0  0
 28 52  1  0  0  0  0
 29 53  1  0  0  0  0
 30 31  1  0  0  0  0
 30 54  1  0  0  0  0
 31 34  1  0  0  0  0
 32 33  1  0  0  0  0
 33 55  1  0  0  0  0
 33 56  1  0  0  0  0
 34 57  1  0  0  0  0
 34 58  1  0  0  0  0
 34 59  1  0  0  0  0
 35 60  1  0  0  0  0
 35 61  1  0  0  0  0
 35 62  1  0  0  0  0
M  END
> <PUBCHEM_COMPOUND_CID>
9874913

> <PUBCHEM_CONFORMER_RMSD>
1

> <PUBCHEM_CONFORMER_DIVERSEORDER>
17
203
82
147
81
40
95
127
178
83
152
53
204
23
135
179
43
54
151
57
49
122
142
189
143
75
146
74
193
177
184
124
169
35
145
78
119
195
65
120
62
186
88
59
197
72
7
36
137
50
51
27
58
170
52
166
187
116
80
109
6
196
44
90
190
205
48
100
172
118
64
188
171
105
56
91
174
19
201
41
71
46
39
162
180
30
21
129
94
114
63
123
140
111
185
92
199
133
24
37
194
159
200
125
93
134
154
202
150
115
28
106
2
183
117
136
182
32
38
113
33
20
66
69
4
31
45
110
29
156
86
128
168
176
11
101
158
153
1
198
22
85
126
73
98
89
131
97
60
121
77
102
160
96
191
25
55
173
112
104
67
99
141
68
70
132
61
108
148
16
26
103
10
192
79
155
84
164
12
144
107
149
18
42
15
163
47
138
13
8
161
130
5
14
87
34
181
167
165
9
3
157
139
175
76

> <PUBCHEM_MMFF94_PARTIAL_CHARGES>
48
1 -0.17
10 0.41
11 0.1
12 0.31
13 -0.15
14 0.03
15 -0.14
16 -0.15
17 0.08
18 -0.15
19 -0.15
2 -0.56
20 -0.15
21 -0.15
22 -0.18
23 0.14
24 0.47
25 -0.29
26 0.44
27 0.08
28 -0.15
29 0.16
3 -0.57
30 -0.15
31 0.17
32 0.57
33 0.34
34 0.14
35 0.28
36 0.15
37 0.4
38 0.15
39 0.15
4 -0.6
40 0.15
41 0.15
42 0.15
43 0.15
47 0.15
48 0.15
5 -0.62
51 0.37
52 0.15
53 0.15
54 0.15
6 -0.62
7 -0.73
8 -0.62

> <PUBCHEM_EFFECTIVE_ROTOR_COUNT>
10

> <PUBCHEM_PHARMACOPHORE_FEATURES>
12
1 1 acceptor
1 2 acceptor
1 3 acceptor
1 4 donor
1 7 donor
1 8 acceptor
3 4 5 10 cation
3 5 6 24 cation
6 11 15 16 17 19 21 rings
6 5 6 9 10 12 24 rings
6 8 27 28 29 30 31 rings
6 9 12 13 14 18 20 rings

> <PUBCHEM_HEAVY_ATOM_COUNT>
35

> <PUBCHEM_ATOM_DEF_STEREO_COUNT>
0

> <PUBCHEM_ATOM_UDEF_STEREO_COUNT>
0

> <PUBCHEM_BOND_DEF_STEREO_COUNT>
1

> <PUBCHEM_BOND_UDEF_STEREO_COUNT>
0

> <PUBCHEM_ISOTOPIC_ATOM_COUNT>
0

> <PUBCHEM_COMPONENT_COUNT>
1

> <PUBCHEM_CACTVS_TAUTO_COUNT>
6

> <PUBCHEM_CONFORMER_ID>
0096ADE100000011

> <PUBCHEM_MMFF94_ENERGY>
118.6028

> <PUBCHEM_FEATURE_SELFOVERLAP>
61.076

> <PUBCHEM_SHAPE_FINGERPRINT>
10 15 17489014956548390576
10100884 174 18408597081106048962
10254770 206 18342171185830810863
10319926 262 17843124702076364484
10571361 74 18334570231371898306
10622 236 18187929524883578551
11136131 41 17335605892581941793
11478447 58 17903632231017248042
12106331 60 18202002144643737004
12202916 173 18060131030120808493
12218070 45 18264197020602326250
12758862 65 17632012078093731618
13165053 137 18412262805433410155
14844126 61 18341056233721961145
15250474 111 18409169887739602948
15320294 125 18262524684827336645
15467298 65 18334573521633468946
15728490 83 18263649631468289043
18603816 31 18187922842035707665
21033648 29 16557058940104481296
260245 28 18260257543370430146
3044373 233 17327186945296843291
3504750 166 18193830449593217748
3882209 13 17128143321460895023
463206 1 18338240461520054783
4756088 132 17476633647670389831
49967989 163 18267603432057435142
50080093 196 17896874361737882730
613672 6 18058740216324784255
6201320 77 17098927111832066499
6695519 79 15698002924752249356
9511036 111 18261097562096152274

> <PUBCHEM_SHAPE_MULTIPOLES>
677.77
18.12
8.86
2.06
24.18
13.69
1.23
13.88
-5.71
-15.7
-4.41
2.33
-0.18
-5.69

> <PUBCHEM_SHAPE_SELFOVERLAP>
1464.521

> <PUBCHEM_SHAPE_VOLUME>
368.8

> <PUBCHEM_COORDINATE_TYPE>
2
5
10

$$$$
11282283
  -OEChem-11282412143D

 53 58  0     0  0  0  0  0  0999 V2000
    2.1600    2.9699    2.7093 S   0  0  0  0  0  0  0  0  0  0  0  0
   -3.8797   -0.5834    0.6157 O   0  0  0  0  0  0  0  0  0  0  0  0
    7.4549   -0.2596   -1.9894 O   0  0  0  0  0  0  0  0  0  0  0  0
    7.6631   -2.5076   -1.1465 O   0  0  0  0  0  0  0  0  0  0  0  0
   -1.8314    1.2962   -0.3469 N   0  0  0  0  0  0  0  0  0  0  0  0
    0.7312    1.6537    0.9161 N   0  0  0  0  0  0  0  0  0  0  0  0
    2.9724    1.0224    1.0950 N   0  0  0  0  0  0  0  0  0  0  0  0
   -3.4102    1.8346   -2.0579 N   0  0  0  0  0  0  0  0  0  0  0  0
   -5.5967    0.7555   -2.1785 N   0  0  0  0  0  0  0  0  0  0  0  0
   -0.6546    1.6861   -1.1320 C   0  0  0  0  0  0  0  0  0  0  0  0
   -1.6709    1.0923    1.0974 C   0  0  0  0  0  0  0  0  0  0  0  0
    0.6280    1.1981   -0.4621 C   0  0  0  0  0  0  0  0  0  0  0  0
   -0.5061    1.9210    1.6343 C   0  0  0  0  0  0  0  0  0  0  0  0
   -3.0718    1.1256   -0.9578 C   0  0  0  0  0  0  0  0  0  0  0  0
    1.9386    1.8243    1.5105 C   0  0  0  0  0  0  0  0  0  0  0  0
   -3.9974    0.2294   -0.4663 C   0  0  0  0  0  0  0  0  0  0  0  0
   -5.2316    0.0583   -1.0751 C   0  0  0  0  0  0  0  0  0  0  0  0
   -5.9195   -0.9246   -0.3182 C   0  0  0  0  0  0  0  0  0  0  0  0
   -5.0472   -1.2859    0.7076 C   0  0  0  0  0  0  0  0  0  0  0  0
    4.3298    1.0504    1.6016 C   0  0  0  0  0  0  0  0  0  0  0  0
    5.2157    0.0696    0.8894 C   0  0  0  0  0  0  0  0  0  0  0  0
   -4.6343    1.6090   -2.5928 C   0  0  0  0  0  0  0  0  0  0  0  0
   -7.1772   -1.5498   -0.3813 C   0  0  0  0  0  0  0  0  0  0  0  0
   -5.3439   -2.2358    1.6836 C   0  0  0  0  0  0  0  0  0  0  0  0
    5.9063    0.4733   -0.2504 C   0  0  0  0  0  0  0  0  0  0  0  0
    5.3317   -1.2361    1.3853 C   0  0  0  0  0  0  0  0  0  0  0  0
    6.7078   -0.4633   -0.8702 C   0  0  0  0  0  0  0  0  0  0  0  0
   -7.5018   -2.5088    0.5877 C   0  0  0  0  0  0  0  0  0  0  0  0
   -6.5999   -2.8439    1.6006 C   0  0  0  0  0  0  0  0  0  0  0  0
    6.8267   -1.7469   -0.3890 C   0  0  0  0  0  0  0  0  0  0  0  0
    6.1504   -2.1650    0.7386 C   0  0  0  0  0  0  0  0  0  0  0  0
    8.0577   -1.5589   -2.1583 C   0  0  0  0  0  0  0  0  0  0  0  0
   -0.6387    2.7784   -1.2300 H   0  0  0  0  0  0  0  0  0  0  0  0
   -0.7054    1.2596   -2.1410 H   0  0  0  0  0  0  0  0  0  0  0  0
   -1.4837    0.0298    1.2952 H   0  0  0  0  0  0  0  0  0  0  0  0
   -2.5734    1.3955    1.6418 H   0  0  0  0  0  0  0  0  0  0  0  0
    0.6427    0.1011   -0.4411 H   0  0  0  0  0  0  0  0  0  0  0  0
    1.5003    1.5342   -1.0341 H   0  0  0  0  0  0  0  0  0  0  0  0
   -0.7303    2.9889    1.5160 H   0  0  0  0  0  0  0  0  0  0  0  0
   -0.3865    1.7127    2.7033 H   0  0  0  0  0  0  0  0  0  0  0  0
    2.7599    0.3053    0.4089 H   0  0  0  0  0  0  0  0  0  0  0  0
    4.3105    0.8281    2.6755 H   0  0  0  0  0  0  0  0  0  0  0  0
    4.7323    2.0647    1.4915 H   0  0  0  0  0  0  0  0  0  0  0  0
   -4.8739    2.1941   -3.4743 H   0  0  0  0  0  0  0  0  0  0  0  0
   -7.8892   -1.3003   -1.1623 H   0  0  0  0  0  0  0  0  0  0  0  0
   -4.6398   -2.4909    2.4667 H   0  0  0  0  0  0  0  0  0  0  0  0
    5.8209    1.4808   -0.6424 H   0  0  0  0  0  0  0  0  0  0  0  0
    4.7858   -1.5398    2.2749 H   0  0  0  0  0  0  0  0  0  0  0  0
   -8.4712   -2.9992    0.5496 H   0  0  0  0  0  0  0  0  0  0  0  0
   -6.8794   -3.5918    2.3386 H   0  0  0  0  0  0  0  0  0  0  0  0
    6.2462   -3.1775    1.1140 H   0  0  0  0  0  0  0  0  0  0  0  0
    9.1476   -1.4466   -2.1281 H   0  0  0  0  0  0  0  0  0  0  0  0
    7.7717   -1.9535   -3.1401 H   0  0  0  0  0  0  0  0  0  0  0  0
  1 15  2  0  0  0  0
  2 16  1  0  0  0  0
  2 19  1  0  0  0  0
  3 27  1  0  0  0  0
  3 32  1  0  0  0  0
  4 30  1  0  0  0  0
  4 32  1  0  0  0  0
  5 10  1  0  0  0  0
  5 11  1  0  0  0  0
  5 14  1  0  0  0  0
  6 12  1  0  0  0  0
  6 13  1  0  0  0  0
  6 15  1  0  0  0  0
  7 15  1  0  0  0  0
  7 20  1  0  0  0  0
  7 41  1  0  0  0  0
  8 14  2  0  0  0  0
  8 22  1  0  0  0  0
  9 17  1  0  0  0  0
  9 22  2  0  0  0  0
 10 12  1  0  0  0  0
 10 33  1  0  0  0  0
 10 34  1  0  0  0  0
 11 13  1  0  0  0  0
 11 35  1  0  0  0  0
 11 36  1  0  0  0  0
 12 37  1  0  0  0  0
 12 38  1  0  0  0  0
 13 39  1  0  0  0  0
 13 40  1  0  0  0  0
 14 16  1  0  0  0  0
 16 17  2  0  0  0  0
 17 18  1  0  0  0  0
 18 19  1  0  0  0  0
 18 23  2  0  0  0  0
 19 24  2  0  0  0  0
 20 21  1  0  0  0  0
 20 42  1  0  0  0  0
 20 43  1  0  0  0  0
 21 25  2  0  0  0  0
 21 26  1  0  0  0  0
 22 44  1  0  0  0  0
 23 28  1  0  0  0  0
 23 45  1  0  0  0  0
 24 29  1  0  0  0  0
 24 46  1  0  0  0  0
 25 27  1  0  0  0  0
 25 47  1  0  0  0  0
 26 31  2  0  0  0  0
 26 48  1  0  0  0  0
 27 30  2  0  0  0  0
 28 29  2  0  0  0  0
 28 49  1  0  0  0  0
 29 50  1  0  0  0  0
 30 31  1  0  0  0  0
 31 51  1  0  0  0  0
 32 52  1  0  0  0  0
 32 53  1  0  0  0  0
M  END
> <PUBCHEM_COMPOUND_CID>
11282283

> <PUBCHEM_CONFORMER_RMSD>
1

> <PUBCHEM_CONFORMER_DIVERSEORDER>
1
251
256
235
149
175
179
49
81
87
160
132
220
252
221
55
40
233
290
230
266
113
73
44
99
170
103
109
88
264
82
282
194
96
257
254
89
271
260
10
267
101
243
162
90
253
142
117
287
45
164
124
248
48
108
161
74
123
53
135
46
185
112
244
69
152
234
37
64
193
106
196
218
143
201
11
35
219
165
211
207
265
280
270
250
100
75
153
184
33
47
214
269
76
247
91
169
32
138
216
205
66
146
212
206
262
148
268
42
223
208
36
195
263
155
39
102
183
285
151
52
71
192
67
23
189
215
289
217
157
51
203
133
70
30
159
116
227
93
176
121
119
38
174
72
241
166
242
98
122
239
144
19
158
120
28
286
3
125
27
34
85
178
272
240
172
25
222
145
13
86
22
79
202
182
275
24
107
56
154
78
17
83
110
225
2
26
261
167
139
232
63
9
18
255
186
134
231
131
168
278
127
238
246
57
173
177
209
94
111
14
21
20
197
84
249
156
204
8
150
130
276
104
7
273
136
129
15
187
163
226
237
279
58
118
224
199
198
180
171
4
283
6
288
236
105
281
188
80
68
190
115
229
43
5
200
59
95
258
31
141
16
284
137
97
274
140
54
277
29
50
259
12
210
228
181
41
92
60
77
128
245
213
147
126
191
114
65
61
62

> <PUBCHEM_MMFF94_PARTIAL_CHARGES>
40
1 -0.38
10 0.37
11 0.37
12 0.3
13 0.3
14 0.41
15 0.5
16 0.14
17 0.26
19 0.14
2 -0.28
20 0.44
21 -0.14
22 0.47
23 -0.15
24 -0.15
25 -0.15
26 -0.15
27 0.08
28 -0.15
29 -0.15
3 -0.36
30 0.08
31 -0.15
32 0.56
4 -0.36
41 0.37
44 0.15
45 0.15
46 0.15
47 0.15
48 0.15
49 0.15
5 -0.84
50 0.15
51 0.15
6 -0.66
7 -0.73
8 -0.62
9 -0.57

> <PUBCHEM_EFFECTIVE_ROTOR_COUNT>
6.8

> <PUBCHEM_PHARMACOPHORE_FEATURES>
13
1 1 acceptor
1 2 acceptor
1 3 acceptor
1 4 acceptor
1 7 donor
3 5 8 14 cation
3 8 9 22 cation
5 2 16 17 18 19 rings
5 3 4 27 30 32 rings
6 18 19 23 24 28 29 rings
6 21 25 26 27 30 31 rings
6 5 6 10 11 12 13 rings
6 8 9 14 16 17 22 rings

> <PUBCHEM_HEAVY_ATOM_COUNT>
32

> <PUBCHEM_ATOM_DEF_STEREO_COUNT>
0

> <PUBCHEM_ATOM_UDEF_STEREO_COUNT>
0

> <PUBCHEM_BOND_DEF_STEREO_COUNT>
0

> <PUBCHEM_BOND_UDEF_STEREO_COUNT>
0

> <PUBCHEM_ISOTOPIC_ATOM_COUNT>
0

> <PUBCHEM_COMPONENT_COUNT>
1

> <PUBCHEM_CACTVS_TAUTO_COUNT>
2

> <PUBCHEM_CONFORMER_ID>
00AC276B00000001

> <PUBCHEM_MMFF94_ENERGY>
97.5661

> <PUBCHEM_FEATURE_SELFOVERLAP>
66.469

> <PUBCHEM_SHAPE_FINGERPRINT>
10280341 67 13697027076358575750
10319688 67 12895358806922531031
10533779 1 13263262046656112126
11408170 108 18270116959527875791
11443803 9 13542468662279533653
12047536 79 10015593788106006548
12124843 1 16877952594956606822
12342043 65 18411411847614888961
12422481 6 15698284395645540464
12655364 131 16343707621444926415
12778500 126 12175626153634208726
131258 43 18335426806875521140
13383668 40 18340486665460910615
13553643 44 18340779212057273470
13627175 4 17489870457728882182
13673619 4 18413107273054063808
13690498 29 17530960307150274117
13782708 43 18411971481642060585
14767858 380 15430031067348339153
15183329 4 16732982024576260422
15350500 185 12396301504330049654
15350500 55 8718823185589919214
15352257 5 18407758135973346563
15510800 12 18343306954770783174
16993089 31 18342455971905475975
17134984 74 18334294267628947698
18643901 69 18114183051827898875
19246450 95 16343155619199358625
195137 95 10087646970484832674
2026 5 18410008819069791087
21362857 166 17676196962880392834
21365058 113 18409729586329883172
21585481 151 14908183049945593380
21585482 310 18131357405836138966
21599406 157 16805871910362650470
21781051 124 18412545410218063262
2303208 19 18410002264985964777
23081809 10 15574984044819986232
23522609 53 15864902115696931653
23559900 14 18114166567227179949
249057 25 15213560283598593680
25269216 80 17167867469860716803
255183 451 18041561463795987717
2748736 6 13045945698991059428
312425 54 14189571940738903836
3383291 50 18060413608561741846
3504750 166 15051725378861355973
3663271 9 14333114304773696554
3862424 121 18261403285782703146
397638 26 12319464276710133859
404807 78 18187937217993640338
4107672 100 17603860062618049109
437795 70 17750517449962547739
44880168 125 18267018539612320915
44880568 143 17967248681220777772
49967989 163 16733272352066475819
504843 32 11819288762097327521
513202 73 17560799918403737377
563151 248 15985104128073886887
58083652 198 16916774197715888745
6058803 2 15336560622173506241
6712543 237 13614524047586446068
9980921 177 12391252495137030756
999808 66 18272371975042015559

> <PUBCHEM_SHAPE_MULTIPOLES>
619.88
26.03
3.13
2.44
18.11
0.32
0.52
25.69
6.65
0.15
-1.41
-0.28
-0.88
5.85

> <PUBCHEM_SHAPE_SELFOVERLAP>
1376.486

> <PUBCHEM_SHAPE_VOLUME>
335.7

> <PUBCHEM_COORDINATE_TYPE>
2
5
10

$$$$
23635314
  -OEChem-11282412143D

 61 64  0     0  0  0  0  0  0999 V2000
  -10.0058   -2.8448   -0.1069 O   0  0  0  0  0  0  0  0  0  0  0  0
   -5.2757    1.4280    0.4536 O   0  0  0  0  0  0  0  0  0  0  0  0
    4.5200    0.0010   -1.2958 O   0  0  0  0  0  0  0  0  0  0  0  0
   -7.8658   -1.0111   -0.5062 N   0  0  0  0  0  0  0  0  0  0  0  0
    6.5518    0.9423   -0.6833 N   0  0  0  0  0  0  0  0  0  0  0  0
    2.3289    2.4906   -0.6831 N   0  0  0  0  0  0  0  0  0  0  0  0
   -8.0939   -1.6545    0.7950 C   0  0  0  0  0  0  0  0  0  0  0  0
   -9.1366   -0.8788   -1.2323 C   0  0  0  0  0  0  0  0  0  0  0  0
   -7.2274    0.2924   -0.3357 C   0  0  0  0  0  0  0  0  0  0  0  0
   -8.7710   -3.0070    0.5920 C   0  0  0  0  0  0  0  0  0  0  0  0
   -9.7900   -2.2491   -1.3868 C   0  0  0  0  0  0  0  0  0  0  0  0
   -5.8657    0.1412    0.3234 C   0  0  0  0  0  0  0  0  0  0  0  0
   -3.9066    1.4851    0.4313 C   0  0  0  0  0  0  0  0  0  0  0  0
   -1.1292    1.6009    0.3864 C   0  0  0  0  0  0  0  0  0  0  0  0
   -3.2734    2.6191   -0.0644 C   0  0  0  0  0  0  0  0  0  0  0  0
   -3.1654    0.4085    0.9046 C   0  0  0  0  0  0  0  0  0  0  0  0
    0.3158    1.6611    0.3631 C   0  0  0  0  0  0  0  0  0  0  0  0
   -1.8799    2.6771   -0.0869 C   0  0  0  0  0  0  0  0  0  0  0  0
   -1.7720    0.4666    0.8821 C   0  0  0  0  0  0  0  0  0  0  0  0
    3.0353    1.8211    0.2553 C   0  0  0  0  0  0  0  0  0  0  0  0
    4.5220    1.9256    0.1737 C   0  0  0  0  0  0  0  0  0  0  0  0
    1.0745    0.9860    1.3112 C   0  0  0  0  0  0  0  0  0  0  0  0
    0.9828    2.3928   -0.6045 C   0  0  0  0  0  0  0  0  0  0  0  0
    2.4620    1.0625    1.2632 C   0  0  0  0  0  0  0  0  0  0  0  0
    7.3948    0.0299   -1.4199 C   0  0  0  0  0  0  0  0  0  0  0  0
    5.1673    0.8476   -0.6850 C   0  0  0  0  0  0  0  0  0  0  0  0
    7.7790   -1.1670   -0.5991 C   0  0  0  0  0  0  0  0  0  0  0  0
    8.9344   -1.1291    0.1728 C   0  0  0  0  0  0  0  0  0  0  0  0
    6.9754   -2.3011   -0.6188 C   0  0  0  0  0  0  0  0  0  0  0  0
    9.2914   -2.2411    0.9356 C   0  0  0  0  0  0  0  0  0  0  0  0
    7.3325   -3.4129    0.1442 C   0  0  0  0  0  0  0  0  0  0  0  0
    8.4905   -3.3828    0.9214 C   0  0  0  0  0  0  0  0  0  0  0  0
   -7.1612   -1.8624    1.3254 H   0  0  0  0  0  0  0  0  0  0  0  0
   -8.7233   -1.0203    1.4326 H   0  0  0  0  0  0  0  0  0  0  0  0
   -9.8168   -0.2097   -0.6892 H   0  0  0  0  0  0  0  0  0  0  0  0
   -8.9642   -0.4535   -2.2275 H   0  0  0  0  0  0  0  0  0  0  0  0
   -7.8515    0.9796    0.2511 H   0  0  0  0  0  0  0  0  0  0  0  0
   -7.0850    0.7733   -1.3123 H   0  0  0  0  0  0  0  0  0  0  0  0
   -8.1276   -3.7041    0.0412 H   0  0  0  0  0  0  0  0  0  0  0  0
   -8.9964   -3.4611    1.5623 H   0  0  0  0  0  0  0  0  0  0  0  0
  -10.7651   -2.1443   -1.8734 H   0  0  0  0  0  0  0  0  0  0  0  0
   -9.1814   -2.9203   -2.0051 H   0  0  0  0  0  0  0  0  0  0  0  0
   -5.9407   -0.2657    1.3354 H   0  0  0  0  0  0  0  0  0  0  0  0
   -5.2552   -0.5249   -0.3010 H   0  0  0  0  0  0  0  0  0  0  0  0
   -3.8551    3.4613   -0.4284 H   0  0  0  0  0  0  0  0  0  0  0  0
   -3.6254   -0.4831    1.3194 H   0  0  0  0  0  0  0  0  0  0  0  0
   -1.4218    3.5906   -0.4563 H   0  0  0  0  0  0  0  0  0  0  0  0
   -1.2275   -0.4028    1.2404 H   0  0  0  0  0  0  0  0  0  0  0  0
    4.7933    2.9003   -0.2518 H   0  0  0  0  0  0  0  0  0  0  0  0
    4.9616    1.8889    1.1783 H   0  0  0  0  0  0  0  0  0  0  0  0
    0.6280    0.4127    2.1185 H   0  0  0  0  0  0  0  0  0  0  0  0
    0.4719    2.9271   -1.3993 H   0  0  0  0  0  0  0  0  0  0  0  0
    3.0647    0.5429    2.0005 H   0  0  0  0  0  0  0  0  0  0  0  0
    8.2867    0.5855   -1.7315 H   0  0  0  0  0  0  0  0  0  0  0  0
    6.8817   -0.2838   -2.3370 H   0  0  0  0  0  0  0  0  0  0  0  0
    7.0011    1.6679   -0.1320 H   0  0  0  0  0  0  0  0  0  0  0  0
    9.5647   -0.2443    0.1930 H   0  0  0  0  0  0  0  0  0  0  0  0
    6.0732   -2.3394   -1.2223 H   0  0  0  0  0  0  0  0  0  0  0  0
   10.1927   -2.2176    1.5411 H   0  0  0  0  0  0  0  0  0  0  0  0
    6.7094   -4.3024    0.1327 H   0  0  0  0  0  0  0  0  0  0  0  0
    8.7685   -4.2486    1.5152 H   0  0  0  0  0  0  0  0  0  0  0  0
  1 10  1  0  0  0  0
  1 11  1  0  0  0  0
  2 12  1  0  0  0  0
  2 13  1  0  0  0  0
  3 26  2  0  0  0  0
  4  7  1  0  0  0  0
  4  8  1  0  0  0  0
  4  9  1  0  0  0  0
  5 25  1  0  0  0  0
  5 26  1  0  0  0  0
  5 56  1  0  0  0  0
  6 20  2  0  0  0  0
  6 23  1  0  0  0  0
  7 10  1  0  0  0  0
  7 33  1  0  0  0  0
  7 34  1  0  0  0  0
  8 11  1  0  0  0  0
  8 35  1  0  0  0  0
  8 36  1  0  0  0  0
  9 12  1  0  0  0  0
  9 37  1  0  0  0  0
  9 38  1  0  0  0  0
 10 39  1  0  0  0  0
 10 40  1  0  0  0  0
 11 41  1  0  0  0  0
 11 42  1  0  0  0  0
 12 43  1  0  0  0  0
 12 44  1  0  0  0  0
 13 15  2  0  0  0  0
 13 16  1  0  0  0  0
 14 17  1  0  0  0  0
 14 18  2  0  0  0  0
 14 19  1  0  0  0  0
 15 18  1  0  0  0  0
 15 45  1  0  0  0  0
 16 19  2  0  0  0  0
 16 46  1  0  0  0  0
 17 22  1  0  0  0  0
 17 23  2  0  0  0  0
 18 47  1  0  0  0  0
 19 48  1  0  0  0  0
 20 21  1  0  0  0  0
 20 24  1  0  0  0  0
 21 26  1  0  0  0  0
 21 49  1  0  0  0  0
 21 50  1  0  0  0  0
 22 24  2  0  0  0  0
 22 51  1  0  0  0  0
 23 52  1  0  0  0  0
 24 53  1  0  0  0  0
 25 27  1  0  0  0  0
 25 54  1  0  0  0  0
 25 55  1  0  0  0  0
 27 28  2  0  0  0  0
 27 29  1  0  0  0  0
 28 30  1  0  0  0  0
 28 57  1  0  0  0  0
 29 31  2  0  0  0  0
 29 58  1  0  0  0  0
 30 32  2  0  0  0  0
 30 59  1  0  0  0  0
 31 32  1  0  0  0  0
 31 60  1  0  0  0  0
 32 61  1  0  0  0  0
M  END
> <PUBCHEM_COMPOUND_CID>
23635314

> <PUBCHEM_CONFORMER_RMSD>
1

> <PUBCHEM_CONFORMER_DIVERSEORDER>
2
199
342
336
397
22
160
293
185
243
404
162
172
231
208
251
292
181
197
31
303
277
146
69
275
358
410
229
305
259
300
364
232
67
323
147
194
302
8
247
204
319
405
206
218
258
412
380
400
286
101
4
217
363
51
354
119
202
228
165
214
249
98
131
242
383
287
406
239
128
179
190
105
167
262
234
13
309
5
196
174
106
246
156
143
345
169
233
41
347
184
312
107
75
171
3
120
240
264
149
378
103
398
304
254
151
371
73
288
223
163
261
407
245
157
138
282
170
187
227
12
96
78
255
360
118
260
175
209
183
356
15
180
129
272
395
102
127
289
222
64
331
257
385
317
256
391
27
29
115
362
265
186
166
132
328
35
62
37
349
97
379
117
192
393
238
366
326
104
321
81
193
111
124
191
6
390
48
141
142
399
396
388
159
93
403
88
224
182
392
375
133
225
140
74
70
173
36
313
269
80
116
100
351
207
352
21
161
365
201
213
350
230
30
1
63
368
14
177
137
244
338
376
89
384
211
274
139
47
215
241
210
408
283
126
25
52
332
276
195
284
341
296
205
221
325
377
130
340
290
66
310
76
334
53
327
250
369
267
92
144
91
402
348
330
154
189
386
125
136
99
401
271
281
346
59
253
235
42
18
411
10
38
198
188
279
311
353
87
373
71
299
252
23
306
9
49
40
413
110
318
219
355
389
43
268
415
168
324
60
7
307
135
382
39
77
16
200
65
11
90
301
164
298
414
123
216
322
86
57
357
85
176
32
50
82
344
178
226
68
122
84
26
61
297
112
148
266
95
361
17
94
237
367
44
291
150
28
79
294
409
113
372
83
320
343
158
108
285
315
270
314
212
203
54
58
34
56
387
359
278
72
145
109
24
134
155
19
153
370
220
295
33
121
45
280
55
308
20
248
335
337
114
46
339
152
374
329
381
333
273
263
236
394
316

> <PUBCHEM_MMFF94_PARTIAL_CHARGES>
43
1 -0.56
10 0.28
11 0.28
12 0.28
13 0.08
15 -0.15
16 -0.15
18 -0.15
19 -0.15
2 -0.36
20 0.17
21 0.2
22 -0.15
23 0.16
24 -0.15
25 0.44
26 0.57
27 -0.14
28 -0.15
29 -0.15
3 -0.57
30 -0.15
31 -0.15
32 -0.15
4 -0.81
45 0.15
46 0.15
47 0.15
48 0.15
5 -0.73
51 0.15
52 0.15
53 0.15
56 0.37
57 0.15
58 0.15
59 0.15
6 -0.62
60 0.15
61 0.15
7 0.27
8 0.27
9 0.27

> <PUBCHEM_EFFECTIVE_ROTOR_COUNT>
11.2

> <PUBCHEM_PHARMACOPHORE_FEATURES>
10
1 1 acceptor
1 2 acceptor
1 3 acceptor
1 4 cation
1 5 donor
1 6 acceptor
6 1 4 7 8 10 11 rings
6 13 14 15 16 18 19 rings
6 27 28 29 30 31 32 rings
6 6 17 20 22 23 24 rings

> <PUBCHEM_HEAVY_ATOM_COUNT>
32

> <PUBCHEM_ATOM_DEF_STEREO_COUNT>
0

> <PUBCHEM_ATOM_UDEF_STEREO_COUNT>
0

> <PUBCHEM_BOND_DEF_STEREO_COUNT>
0

> <PUBCHEM_BOND_UDEF_STEREO_COUNT>
0

> <PUBCHEM_ISOTOPIC_ATOM_COUNT>
0

> <PUBCHEM_COMPONENT_COUNT>
1

> <PUBCHEM_CACTVS_TAUTO_COUNT>
5

> <PUBCHEM_CONFORMER_ID>
0168A57200000002

> <PUBCHEM_MMFF94_ENERGY>
87.881

> <PUBCHEM_FEATURE_SELFOVERLAP>
50.748

> <PUBCHEM_SHAPE_FINGERPRINT>
10 15 12103839043298298660
10066227 49 18409168831309367303
10952577 141 8285901503128761850
11181472 205 11819538312671335581
11386260 185 16950569933995511908
11456790 92 16056882437847811889
11497681 19 18407759218574045893
11607047 74 18120375612542825524
11621639 179 12829788340395590814
12013929 112 14923944522674279066
12013929 94 18342741798406243182
12120059 9 18113334241488264744
12539765 74 8070026675507695912
13383668 254 10951770734413846819
13627175 4 18201992253450494463
14026016 60 17749101150690879826
14359421 15 18260264153656985955
15183329 4 16443638883672701920
15198563 99 16081365211423622084
15392192 104 17060625499840085596
1754908 1 15123789578384333575
2026 5 18338518526150801354
20721686 146 8070020082816357178
21130935 74 18055918693963956754
21130991 4 18409726253155075690
212700 22 18335414716710868099
21362857 166 18334015007873939964
21585482 111 9151174251164554615
21895431 317 18341612594430964471
21987483 16 18272928333249318656
22002106 203 18411694387674650650
23569917 315 18409453622223201939
23569943 247 18120376445949876506
23576562 1 15720249447149948645
25025965 108 18130497605451270519
25242607 90 17846777442674787597
3711267 37 8286207184156491839
406291 66 18413389834831073197
4339292 15 18342171164049766141
437795 150 17241336910212815483
439807 62 18411420626860045814
54039377 194 18412260636642873247
5718773 13 18410858733304990364
6081469 158 18040435486035843028
6204607 403 11239128171390772738
636775 72 9151181944173440887
6438161 24 18410573955967784776
9962374 69 18201434809143798116

> <PUBCHEM_SHAPE_MULTIPOLES>
625.99
38.81
4.04
1.18
25.99
2.29
-0.09
50.18
-6.35
-0.86
0.25
-0.14
0.2
-2.08

> <PUBCHEM_SHAPE_SELFOVERLAP>
1338.119

> <PUBCHEM_SHAPE_VOLUME>
345.1

> <PUBCHEM_COORDINATE_TYPE>
2
5
10

$$$$
45142457
  -OEChem-11282412143D

 55 59  0     0  0  0  0  0  0999 V2000
   -3.1445   -0.5120   -1.1266 S   0  0  0  0  0  0  0  0  0  0  0  0
   -2.2944    0.5675   -0.6501 O   0  0  0  0  0  0  0  0  0  0  0  0
   -2.9481   -1.0632   -2.4584 O   0  0  0  0  0  0  0  0  0  0  0  0
    1.4193   -0.7601    2.3645 O   0  0  0  0  0  0  0  0  0  0  0  0
   -4.7849   -0.0532   -0.9767 N   0  0  0  0  0  0  0  0  0  0  0  0
    4.9768   -1.6352   -0.5285 N   0  0  0  0  0  0  0  0  0  0  0  0
    6.1270    3.8577   -0.5284 N   0  0  0  0  0  0  0  0  0  0  0  0
    5.5285    4.2032    0.6243 N   0  0  0  0  0  0  0  0  0  0  0  0
   -7.7041    0.7254    0.4725 N   0  0  0  0  0  0  0  0  0  0  0  0
   -1.6634   -2.3670    0.0218 C   0  0  0  0  0  0  0  0  0  0  0  0
   -3.0589   -1.8418    0.0290 C   0  0  0  0  0  0  0  0  0  0  0  0
    0.6783   -2.1261    0.6157 C   0  0  0  0  0  0  0  0  0  0  0  0
    0.9789   -3.3509    0.0067 C   0  0  0  0  0  0  0  0  0  0  0  0
   -0.6399   -1.6408    0.6262 C   0  0  0  0  0  0  0  0  0  0  0  0
    2.9779   -0.9926    0.6413 C   0  0  0  0  0  0  0  0  0  0  0  0
    1.6881   -1.2863    1.2895 C   0  0  0  0  0  0  0  0  0  0  0  0
   -1.3796   -3.5840   -0.5859 C   0  0  0  0  0  0  0  0  0  0  0  0
   -0.0722   -4.0740   -0.5864 C   0  0  0  0  0  0  0  0  0  0  0  0
    3.7817   -1.9525    0.0357 C   0  0  0  0  0  0  0  0  0  0  0  0
    2.3005   -3.9861    0.0198 C   0  0  0  0  0  0  0  0  0  0  0  0
    3.4200    0.3349    0.6646 C   0  0  0  0  0  0  0  0  0  0  0  0
    3.4971   -3.3872    0.0323 C   0  0  0  0  0  0  0  0  0  0  0  0
    4.6325    0.6727    0.0796 C   0  0  0  0  0  0  0  0  0  0  0  0
   -5.3233    0.2484    0.3618 C   0  0  0  0  0  0  0  0  0  0  0  0
    5.1052    2.0256    0.0801 C   0  0  0  0  0  0  0  0  0  0  0  0
    5.3672   -0.3412   -0.5014 C   0  0  0  0  0  0  0  0  0  0  0  0
   -6.4605    1.2298    0.3101 C   0  0  0  0  0  0  0  0  0  0  0  0
    5.9047    2.5638   -0.8985 C   0  0  0  0  0  0  0  0  0  0  0  0
    4.9059    3.0800    0.9913 C   0  0  0  0  0  0  0  0  0  0  0  0
   -6.1888    2.5729    0.1043 C   0  0  0  0  0  0  0  0  0  0  0  0
    6.9161    4.8302   -1.2457 C   0  0  0  0  0  0  0  0  0  0  0  0
   -7.2628    3.4550    0.0630 C   0  0  0  0  0  0  0  0  0  0  0  0
   -8.7229    1.6131    0.4262 C   0  0  0  0  0  0  0  0  0  0  0  0
   -8.5571    2.9740    0.2262 C   0  0  0  0  0  0  0  0  0  0  0  0
   -3.3134   -1.4796    1.0288 H   0  0  0  0  0  0  0  0  0  0  0  0
   -3.7858   -2.6040   -0.2683 H   0  0  0  0  0  0  0  0  0  0  0  0
   -0.8651   -0.6982    1.1201 H   0  0  0  0  0  0  0  0  0  0  0  0
   -2.1644   -4.1675   -1.0598 H   0  0  0  0  0  0  0  0  0  0  0  0
    0.1165   -5.0367   -1.0586 H   0  0  0  0  0  0  0  0  0  0  0  0
    2.2930   -5.0747   -0.0141 H   0  0  0  0  0  0  0  0  0  0  0  0
   -5.4512   -0.5505   -1.5827 H   0  0  0  0  0  0  0  0  0  0  0  0
    2.8020    1.1008    1.1292 H   0  0  0  0  0  0  0  0  0  0  0  0
    4.3773   -4.0275    0.0028 H   0  0  0  0  0  0  0  0  0  0  0  0
   -5.6727   -0.6867    0.8147 H   0  0  0  0  0  0  0  0  0  0  0  0
   -4.5407    0.6568    1.0113 H   0  0  0  0  0  0  0  0  0  0  0  0
    6.3319   -0.1695   -0.9693 H   0  0  0  0  0  0  0  0  0  0  0  0
    6.3234    2.1568   -1.8097 H   0  0  0  0  0  0  0  0  0  0  0  0
    4.3366    3.0837    1.9103 H   0  0  0  0  0  0  0  0  0  0  0  0
   -5.1750    2.9375   -0.0219 H   0  0  0  0  0  0  0  0  0  0  0  0
    7.3235    4.3742   -2.1514 H   0  0  0  0  0  0  0  0  0  0  0  0
    7.7301    5.1598   -0.5952 H   0  0  0  0  0  0  0  0  0  0  0  0
    6.2694    5.6708   -1.5093 H   0  0  0  0  0  0  0  0  0  0  0  0
   -7.0915    4.5154   -0.0961 H   0  0  0  0  0  0  0  0  0  0  0  0
   -9.7122    1.1876    0.5588 H   0  0  0  0  0  0  0  0  0  0  0  0
   -9.4093    3.6433    0.1977 H   0  0  0  0  0  0  0  0  0  0  0  0
  1  2  2  0  0  0  0
  1  3  2  0  0  0  0
  1  5  1  0  0  0  0
  1 11  1  0  0  0  0
  4 16  2  0  0  0  0
  5 24  1  0  0  0  0
  5 41  1  0  0  0  0
  6 19  1  0  0  0  0
  6 26  2  0  0  0  0
  7  8  1  0  0  0  0
  7 28  1  0  0  0  0
  7 31  1  0  0  0  0
  8 29  2  0  0  0  0
  9 27  1  0  0  0  0
  9 33  2  0  0  0  0
 10 11  1  0  0  0  0
 10 14  2  0  0  0  0
 10 17  1  0  0  0  0
 11 35  1  0  0  0  0
 11 36  1  0  0  0  0
 12 13  2  0  0  0  0
 12 14  1  0  0  0  0
 12 16  1  0  0  0  0
 13 18  1  0  0  0  0
 13 20  1  0  0  0  0
 14 37  1  0  0  0  0
 15 16  1  0  0  0  0
 15 19  2  0  0  0  0
 15 21  1  0  0  0  0
 17 18  2  0  0  0  0
 17 38  1  0  0  0  0
 18 39  1  0  0  0  0
 19 22  1  0  0  0  0
 20 22  2  0  0  0  0
 20 40  1  0  0  0  0
 21 23  2  0  0  0  0
 21 42  1  0  0  0  0
 22 43  1  0  0  0  0
 23 25  1  0  0  0  0
 23 26  1  0  0  0  0
 24 27  1  0  0  0  0
 24 44  1  0  0  0  0
 24 45  1  0  0  0  0
 25 28  2  0  0  0  0
 25 29  1  0  0  0  0
 26 46  1  0  0  0  0
 27 30  2  0  0  0  0
 28 47  1  0  0  0  0
 29 48  1  0  0  0  0
 30 32  1  0  0  0  0
 30 49  1  0  0  0  0
 31 50  1  0  0  0  0
 31 51  1  0  0  0  0
 31 52  1  0  0  0  0
 32 34  2  0  0  0  0
 32 53  1  0  0  0  0
 33 34  1  0  0  0  0
 33 54  1  0  0  0  0
 34 55  1  0  0  0  0
M  END
> <PUBCHEM_COMPOUND_CID>
45142457

> <PUBCHEM_CONFORMER_RMSD>
1.2

> <PUBCHEM_CONFORMER_DIVERSEORDER>
1
72
83
142
111
161
128
38
139
5
93
125
131
59
53
22
31
136
159
106
82
117
163
104
73
42
107
34
66
102
148
160
19
55
75
90
58
133
79
126
146
50
54
92
51
95
30
129
18
14
21
57
80
78
162
155
147
37
112
71
130
110
3
99
47
45
26
121
67
143
11
60
109
116
20
108
74
123
153
87
64
25
35
65
40
69
68
43
119
118
23
115
16
122
49
39
44
151
7
154
63
6
36
13
101
46
132
91
94
100
81
56
120
150
32
77
61
84
138
127
88
124
137
28
135
29
33
149
114
4
52
152
144
2
157
76
48
113
103
105
17
15
145
85
97
27
156
70
86
41
134
158
141
10
12
89
98
8
9
62
96
140
24

> <PUBCHEM_MMFF94_PARTIAL_CHARGES>
48
1 1.33
10 -0.14
11 0.25
12 0.09
13 0.03
14 -0.15
15 0.09
16 0.4
17 -0.15
18 -0.15
19 0.34
2 -0.65
20 -0.18
21 -0.15
22 -0.18
23 0.05
24 0.5
25 -0.05
26 0.16
27 0.17
28 -0.3
29 0.14
3 -0.65
30 -0.15
31 0.26
32 -0.15
33 0.16
34 -0.15
37 0.15
38 0.15
39 0.15
4 -0.57
40 0.15
41 0.42
42 0.15
43 0.15
46 0.15
47 0.15
48 0.15
49 0.15
5 -0.91
53 0.15
54 0.15
55 0.15
6 -0.62
7 0.31
8 -0.71
9 -0.62

> <PUBCHEM_EFFECTIVE_ROTOR_COUNT>
6

> <PUBCHEM_PHARMACOPHORE_FEATURES>
12
1 2 acceptor
1 3 acceptor
1 4 acceptor
1 5 donor
1 6 acceptor
1 8 acceptor
1 9 acceptor
5 7 8 25 28 29 rings
6 10 12 13 14 17 18 rings
6 6 15 19 21 23 26 rings
6 9 27 30 32 33 34 rings
7 12 13 15 16 19 20 22 rings

> <PUBCHEM_HEAVY_ATOM_COUNT>
34

> <PUBCHEM_ATOM_DEF_STEREO_COUNT>
0

> <PUBCHEM_ATOM_UDEF_STEREO_COUNT>
0

> <PUBCHEM_BOND_DEF_STEREO_COUNT>
0

> <PUBCHEM_BOND_UDEF_STEREO_COUNT>
0

> <PUBCHEM_ISOTOPIC_ATOM_COUNT>
0

> <PUBCHEM_COMPONENT_COUNT>
1

> <PUBCHEM_CACTVS_TAUTO_COUNT>
1

> <PUBCHEM_CONFORMER_ID>
02B0D1B900000001

> <PUBCHEM_MMFF94_ENERGY>
94.7381

> <PUBCHEM_FEATURE_SELFOVERLAP>
60.936

> <PUBCHEM_SHAPE_FINGERPRINT>
10556698 54 17487597835608212657
10673678 19 18341899563044938075
10675989 125 18411134710960932698
10864689 126 18270403931598358744
10917259 69 18338238280452726332
11479125 193 18410014359692959649
11505856 67 18127116688436299887
11621639 179 18261678074138464734
11828042 163 18341058458989624796
1200032 147 18187646933890494152
12013929 29 18341897368137262749
12522641 24 17533496734241821243
13726171 33 18263081183518352992
13944108 23 18341333284723431696
14026016 13 18341335578236565865
14142895 15 18412823557232844719
14251764 75 18410009961477376406
14565420 104 18114179701305399131
14747281 78 18337688433726762894
14790565 3 18340487777155592649
15131766 46 18340198683065323269
15183329 4 15769483237216846427
15198563 99 17479732066941828070
15347591 1 18408888472698184802
15439362 3 18410859889178804654
155225 6 18410013251586251661
15840311 113 18337393726272161861
16126227 98 18337953510354709077
16993089 31 13110391451840765125
16993427 108 11169915009321441269
17899979 129 18410577284219220924
19053607 189 18267858562032124272
19302320 297 18334853901355952584
19303781 99 8181213126175818164
19304671 126 18060431230875646628
19309040 13 18343018934363874470
19438510 23 18114740533549383946
20691028 202 18410571833394266144
20715895 44 18412541033783311346
21792964 463 17485666866437371337
23522609 53 17917437476340831643
23559900 14 18059016198756643722
23569914 152 17915485847728592902
27425 322 18343019978147046095
3610482 184 17775277275557491167
397830 11 18262811675291473027
406291 66 9295296036400055809
4073 2 18262243206358174667
4258327 124 18202280283153498967
4366758 26 18270407071198697713
4756326 101 16628819907697089536
4760202 70 18342726444061782159
57724786 102 18337945706024897815
5951187 136 18271814497293856334
6058803 2 18195782219850818134
7970288 3 8826911229433773209

> <PUBCHEM_SHAPE_MULTIPOLES>
661.04
23.03
6.67
1.21
39.28
2.92
0.09
37.33
0.56
-9.03
0.97
-0.3
0
-2.03

> <PUBCHEM_SHAPE_SELFOVERLAP>
1452.103

> <PUBCHEM_SHAPE_VOLUME>
358.7

> <PUBCHEM_COORDINATE_TYPE>
2
5
10

$$$$
71736582
  -OEChem-11282412143D

 48 50  0     0  0  0  0  0  0999 V2000
   -3.3716   -2.4909   -0.2177 F   0  0  0  0  0  0  0  0  0  0  0  0
   -3.6120    2.1072    0.9192 F   0  0  0  0  0  0  0  0  0  0  0  0
   -1.4495    0.5281   -0.6915 O   0  0  0  0  0  0  0  0  0  0  0  0
   -6.3493    2.0231    0.7416 O   0  0  0  0  0  0  0  0  0  0  0  0
   -6.1076   -2.6035   -0.4013 O   0  0  0  0  0  0  0  0  0  0  0  0
    8.7045   -1.7275   -0.7198 O   0  0  0  0  0  0  0  0  0  0  0  0
    6.9830    0.0663    0.7061 N   0  0  0  0  0  0  0  0  0  0  0  0
    3.9930    0.9273   -1.0237 N   0  0  0  0  0  0  0  0  0  0  0  0
    6.1175   -0.4633    1.5873 N   0  0  0  0  0  0  0  0  0  0  0  0
    1.8817    1.3675   -1.9480 N   0  0  0  0  0  0  0  0  0  0  0  0
    2.0958    0.1939    0.1458 N   0  0  0  0  0  0  0  0  0  0  0  0
   -3.4619   -0.1908    0.3527 C   0  0  0  0  0  0  0  0  0  0  0  0
    8.4021   -0.0201    0.9549 C   0  0  0  0  0  0  0  0  0  0  0  0
   -1.9745   -0.1371    0.4506 C   0  0  0  0  0  0  0  0  0  0  0  0
    5.0331    0.4922   -0.1813 C   0  0  0  0  0  0  0  0  0  0  0  0
    6.3842    0.6506   -0.3712 C   0  0  0  0  0  0  0  0  0  0  0  0
   -4.0960   -1.3871    0.0175 C   0  0  0  0  0  0  0  0  0  0  0  0
   -4.2185    0.9554    0.5963 C   0  0  0  0  0  0  0  0  0  0  0  0
   -5.6096    0.9053    0.5047 C   0  0  0  0  0  0  0  0  0  0  0  0
   -5.4871   -1.4372   -0.0740 C   0  0  0  0  0  0  0  0  0  0  0  0
    8.9629   -1.4027    0.6403 C   0  0  0  0  0  0  0  0  0  0  0  0
   -6.2438   -0.2908    0.1692 C   0  0  0  0  0  0  0  0  0  0  0  0
    4.9281   -0.2001    1.0399 C   0  0  0  0  0  0  0  0  0  0  0  0
   -0.0855    0.6283   -0.7746 C   0  0  0  0  0  0  0  0  0  0  0  0
    2.5875    0.8247   -0.9376 C   0  0  0  0  0  0  0  0  0  0  0  0
    0.5424    1.2507   -1.8340 C   0  0  0  0  0  0  0  0  0  0  0  0
    0.7500    0.1131    0.1955 C   0  0  0  0  0  0  0  0  0  0  0  0
   -7.7663    1.8993    0.6302 C   0  0  0  0  0  0  0  0  0  0  0  0
   -7.5324   -2.5818   -0.4769 C   0  0  0  0  0  0  0  0  0  0  0  0
    8.5776    0.2448    2.0030 H   0  0  0  0  0  0  0  0  0  0  0  0
    8.8885    0.7350    0.3265 H   0  0  0  0  0  0  0  0  0  0  0  0
   -1.5777   -1.1581    0.5170 H   0  0  0  0  0  0  0  0  0  0  0  0
   -1.7060    0.4017    1.3692 H   0  0  0  0  0  0  0  0  0  0  0  0
    6.9538    1.1173   -1.1635 H   0  0  0  0  0  0  0  0  0  0  0  0
    8.4985   -2.1683    1.2705 H   0  0  0  0  0  0  0  0  0  0  0  0
   10.0447   -1.4181    0.8049 H   0  0  0  0  0  0  0  0  0  0  0  0
   -7.3204   -0.3294    0.0980 H   0  0  0  0  0  0  0  0  0  0  0  0
    4.0501   -0.5338    1.5724 H   0  0  0  0  0  0  0  0  0  0  0  0
    4.2627    1.4176   -1.8746 H   0  0  0  0  0  0  0  0  0  0  0  0
   -0.0280    1.6875   -2.6473 H   0  0  0  0  0  0  0  0  0  0  0  0
    0.4023   -0.3976    1.0855 H   0  0  0  0  0  0  0  0  0  0  0  0
    9.0800   -2.6103   -0.8782 H   0  0  0  0  0  0  0  0  0  0  0  0
   -8.1925    2.8835    0.8520 H   0  0  0  0  0  0  0  0  0  0  0  0
   -8.1718    1.2052    1.3743 H   0  0  0  0  0  0  0  0  0  0  0  0
   -8.0714    1.6465   -0.3911 H   0  0  0  0  0  0  0  0  0  0  0  0
   -7.8544   -3.5928   -0.7480 H   0  0  0  0  0  0  0  0  0  0  0  0
   -7.8853   -1.9148   -1.2710 H   0  0  0  0  0  0  0  0  0  0  0  0
   -7.9858   -2.3563    0.4945 H   0  0  0  0  0  0  0  0  0  0  0  0
  1 17  1  0  0  0  0
  2 18  1  0  0  0  0
  3 14  1  0  0  0  0
  3 24  1  0  0  0  0
  4 19  1  0  0  0  0
  4 28  1  0  0  0  0
  5 20  1  0  0  0  0
  5 29  1  0  0  0  0
  6 21  1  0  0  0  0
  6 42  1  0  0  0  0
  7  9  1  0  0  0  0
  7 13  1  0  0  0  0
  7 16  1  0  0  0  0
  8 15  1  0  0  0  0
  8 25  1  0  0  0  0
  8 39  1  0  0  0  0
  9 23  2  0  0  0  0
 10 25  1  0  0  0  0
 10 26  2  0  0  0  0
 11 25  2  0  0  0  0
 11 27  1  0  0  0  0
 12 14  1  0  0  0  0
 12 17  2  0  0  0  0
 12 18  1  0  0  0  0
 13 21  1  0  0  0  0
 13 30  1  0  0  0  0
 13 31  1  0  0  0  0
 14 32  1  0  0  0  0
 14 33  1  0  0  0  0
 15 16  2  0  0  0  0
 15 23  1  0  0  0  0
 16 34  1  0  0  0  0
 17 20  1  0  0  0  0
 18 19  2  0  0  0  0
 19 22  1  0  0  0  0
 20 22  2  0  0  0  0
 21 35  1  0  0  0  0
 21 36  1  0  0  0  0
 22 37  1  0  0  0  0
 23 38  1  0  0  0  0
 24 26  1  0  0  0  0
 24 27  2  0  0  0  0
 26 40  1  0  0  0  0
 27 41  1  0  0  0  0
 28 43  1  0  0  0  0
 28 44  1  0  0  0  0
 28 45  1  0  0  0  0
 29 46  1  0  0  0  0
 29 47  1  0  0  0  0
 29 48  1  0  0  0  0
M  END
> <PUBCHEM_COMPOUND_CID>
71736582

> <PUBCHEM_CONFORMER_RMSD>
1

> <PUBCHEM_CONFORMER_DIVERSEORDER>
1
40
6
36
13
41
25
27
42
34
52
43
23
9
46
15
4
17
16
49
19
8
3
35
45
2
12
37
48
5
33
29
22
11
7
50
21
28
39
38
10
32
14
18
31
51
20
24
30
26
47
44

> <PUBCHEM_MMFF94_PARTIAL_CHARGES>
36
1 -0.19
10 -0.62
11 -0.62
12 -0.14
13 0.26
14 0.42
15 0.08
16 -0.3
17 0.19
18 0.19
19 0.08
2 -0.19
20 0.08
21 0.28
22 -0.15
23 0.14
24 0.08
25 0.72
26 0.16
27 0.16
28 0.28
29 0.28
3 -0.36
34 0.15
37 0.15
38 0.15
39 0.4
4 -0.36
40 0.15
41 0.15
42 0.4
5 -0.36
6 -0.68
7 0.31
8 -0.58
9 -0.71

> <PUBCHEM_EFFECTIVE_ROTOR_COUNT>
9

> <PUBCHEM_PHARMACOPHORE_FEATURES>
12
1 10 acceptor
1 3 acceptor
1 4 acceptor
1 5 acceptor
1 6 acceptor
1 6 donor
1 8 donor
1 9 acceptor
4 8 10 11 25 cation
5 7 9 15 16 23 rings
6 10 11 24 25 26 27 rings
6 12 17 18 19 20 22 rings

> <PUBCHEM_HEAVY_ATOM_COUNT>
29

> <PUBCHEM_ATOM_DEF_STEREO_COUNT>
0

> <PUBCHEM_ATOM_UDEF_STEREO_COUNT>
0

> <PUBCHEM_BOND_DEF_STEREO_COUNT>
0

> <PUBCHEM_BOND_UDEF_STEREO_COUNT>
0

> <PUBCHEM_ISOTOPIC_ATOM_COUNT>
0

> <PUBCHEM_COMPONENT_COUNT>
1

> <PUBCHEM_CACTVS_TAUTO_COUNT>
2

> <PUBCHEM_CONFORMER_ID>
04469D0600000001

> <PUBCHEM_MMFF94_ENERGY>
87.1954

> <PUBCHEM_FEATURE_SELFOVERLAP>
60.9

> <PUBCHEM_SHAPE_FINGERPRINT>
10 15 17131829898297342032
10299344 5 18260547827598149762
10319926 262 18201710791142180801
11135926 11 18260823774578014719
11315181 36 18335138735134037021
12089408 11 18408041823438177432
12236239 1 18260269685220901973
12592606 108 17967812777476330970
12741549 16 16630529570757158515
12760667 363 17385722495621298796
13673619 4 17167578281265414740
13885169 127 18342175548789330192
13974486 7 17699274784419956151
14251764 18 18187648033249218716
15183329 4 16877936161435623058
15198563 99 15213286496718761022
15301273 46 18202003201553772804
15419008 47 17203608185615925152
15510794 2 17704356558635106350
15690457 1 18336260236614950206
1577012 14 18187657937206758141
15980000 95 17676210169820744604
21267235 1 17095525063899186164
21315763 28 18412544348669654656
21585481 151 18411140225989552198
23081809 10 18113908203368762317
23522609 53 17824008725379693524
23559900 14 18131913771953036793
23569917 315 18114187492361003363
23569943 247 17241028921305299099
23576562 1 14491046024489204719
397830 11 17702374229591262872
44389302 135 18263915567881311186
5028188 123 18408893923923189278
5219985 9 17531245050666143324
559249 180 18334576867575651895
58260988 114 16588884502766764395
5969126 39 16950272992856963524
6691757 9 18343025493728409787
9831232 110 18341338782767472350

> <PUBCHEM_SHAPE_MULTIPOLES>
533.88
28.61
2.15
1.23
31.54
0.94
0.26
9.81
-6.98
-4.73
0.26
1.11
-0.39
-2.39

> <PUBCHEM_SHAPE_SELFOVERLAP>
1143.221

> <PUBCHEM_SHAPE_VOLUME>
296.4

> <PUBCHEM_COORDINATE_TYPE>
2
5
10

$$$$
72710839
  -OEChem-11282412143D

 57 60  0     0  0  0  0  0  0999 V2000
    3.3705   -2.4016   -0.8758 Cl  0  0  0  0  0  0  0  0  0  0  0  0
    3.8145    2.7652    0.8406 Cl  0  0  0  0  0  0  0  0  0  0  0  0
    6.7146    2.1550    0.7778 O   0  0  0  0  0  0  0  0  0  0  0  0
    6.3293   -2.3289   -0.7111 O   0  0  0  0  0  0  0  0  0  0  0  0
   -4.8939   -3.1667    1.1911 O   0  0  0  0  0  0  0  0  0  0  0  0
   -3.8365    1.2188   -1.2288 N   0  0  0  0  0  0  0  0  0  0  0  0
   -1.8639    0.6690   -0.0837 N   0  0  0  0  0  0  0  0  0  0  0  0
   -1.8017    1.4212   -2.3722 N   0  0  0  0  0  0  0  0  0  0  0  0
   -4.1365   -1.3557   -0.1062 N   0  0  0  0  0  0  0  0  0  0  0  0
    2.2882    0.3013   -0.0401 C   0  0  0  0  0  0  0  0  0  0  0  0
    0.2436    0.8631   -1.2114 C   0  0  0  0  0  0  0  0  0  0  0  0
    3.7282    0.1694   -0.0156 C   0  0  0  0  0  0  0  0  0  0  0  0
   -0.5245    0.5529   -0.0773 C   0  0  0  0  0  0  0  0  0  0  0  0
    1.6436    0.7379   -1.1932 C   0  0  0  0  0  0  0  0  0  0  0  0
   -4.8121    0.9766   -0.2439 C   0  0  0  0  0  0  0  0  0  0  0  0
    1.5385   -0.0086    1.0893 C   0  0  0  0  0  0  0  0  0  0  0  0
    0.1465    0.1184    1.0631 C   0  0  0  0  0  0  0  0  0  0  0  0
   -5.6392    2.0154    0.1833 C   0  0  0  0  0  0  0  0  0  0  0  0
   -4.9530   -0.2981    0.3049 C   0  0  0  0  0  0  0  0  0  0  0  0
   -2.4298    1.0966   -1.2307 C   0  0  0  0  0  0  0  0  0  0  0  0
    4.3244   -1.0371   -0.3827 C   0  0  0  0  0  0  0  0  0  0  0  0
    4.5208    1.2484    0.3761 C   0  0  0  0  0  0  0  0  0  0  0  0
   -0.4620    1.2939   -2.3313 C   0  0  0  0  0  0  0  0  0  0  0  0
    5.9097    1.1208    0.4007 C   0  0  0  0  0  0  0  0  0  0  0  0
    5.7134   -1.1646   -0.3582 C   0  0  0  0  0  0  0  0  0  0  0  0
   -6.6076    1.7795    1.1594 C   0  0  0  0  0  0  0  0  0  0  0  0
   -5.9213   -0.5340    1.2809 C   0  0  0  0  0  0  0  0  0  0  0  0
    6.5059   -0.0855    0.0332 C   0  0  0  0  0  0  0  0  0  0  0  0
   -5.5122    3.3914   -0.3856 C   0  0  0  0  0  0  0  0  0  0  0  0
   -6.7487    0.5048    1.7079 C   0  0  0  0  0  0  0  0  0  0  0  0
   -4.1534   -2.6812    0.3441 C   0  0  0  0  0  0  0  0  0  0  0  0
    7.0386    2.2501    2.1629 C   0  0  0  0  0  0  0  0  0  0  0  0
    6.5637   -3.2769    0.3276 C   0  0  0  0  0  0  0  0  0  0  0  0
   -3.1195   -3.5072   -0.3446 C   0  0  0  0  0  0  0  0  0  0  0  0
   -2.9783   -4.8035   -0.0506 C   0  0  0  0  0  0  0  0  0  0  0  0
    2.2197    0.9836   -2.0838 H   0  0  0  0  0  0  0  0  0  0  0  0
    2.0183   -0.3522    2.0028 H   0  0  0  0  0  0  0  0  0  0  0  0
   -0.4176   -0.1311    1.9599 H   0  0  0  0  0  0  0  0  0  0  0  0
   -4.1832    1.7081   -2.0484 H   0  0  0  0  0  0  0  0  0  0  0  0
    0.0456    1.5565   -3.2549 H   0  0  0  0  0  0  0  0  0  0  0  0
   -7.2609    2.5768    1.5036 H   0  0  0  0  0  0  0  0  0  0  0  0
   -6.0987   -1.4865    1.7579 H   0  0  0  0  0  0  0  0  0  0  0  0
    7.5886   -0.1843    0.0504 H   0  0  0  0  0  0  0  0  0  0  0  0
   -4.4899    3.7656   -0.2665 H   0  0  0  0  0  0  0  0  0  0  0  0
   -6.1753    4.1032    0.1183 H   0  0  0  0  0  0  0  0  0  0  0  0
   -5.7772    3.3915   -1.4479 H   0  0  0  0  0  0  0  0  0  0  0  0
   -7.5032    0.3224    2.4678 H   0  0  0  0  0  0  0  0  0  0  0  0
   -3.4647   -1.1262   -0.8330 H   0  0  0  0  0  0  0  0  0  0  0  0
    7.5993    3.1755    2.3205 H   0  0  0  0  0  0  0  0  0  0  0  0
    7.6677    1.4058    2.4624 H   0  0  0  0  0  0  0  0  0  0  0  0
    6.1360    2.2791    2.7811 H   0  0  0  0  0  0  0  0  0  0  0  0
    6.9666   -4.1873   -0.1246 H   0  0  0  0  0  0  0  0  0  0  0  0
    5.6369   -3.5284    0.8526 H   0  0  0  0  0  0  0  0  0  0  0  0
    7.2989   -2.8851    1.0376 H   0  0  0  0  0  0  0  0  0  0  0  0
   -2.4794   -3.0437   -1.0874 H   0  0  0  0  0  0  0  0  0  0  0  0
   -2.2221   -5.3945   -0.5568 H   0  0  0  0  0  0  0  0  0  0  0  0
   -3.5949   -5.3071    0.6853 H   0  0  0  0  0  0  0  0  0  0  0  0
  1 21  1  0  0  0  0
  2 22  1  0  0  0  0
  3 24  1  0  0  0  0
  3 32  1  0  0  0  0
  4 25  1  0  0  0  0
  4 33  1  0  0  0  0
  5 31  2  0  0  0  0
  6 15  1  0  0  0  0
  6 20  1  0  0  0  0
  6 39  1  0  0  0  0
  7 13  2  0  0  0  0
  7 20  1  0  0  0  0
  8 20  2  0  0  0  0
  8 23  1  0  0  0  0
  9 19  1  0  0  0  0
  9 31  1  0  0  0  0
  9 48  1  0  0  0  0
 10 12  1  0  0  0  0
 10 14  2  0  0  0  0
 10 16  1  0  0  0  0
 11 13  1  0  0  0  0
 11 14  1  0  0  0  0
 11 23  2  0  0  0  0
 12 21  2  0  0  0  0
 12 22  1  0  0  0  0
 13 17  1  0  0  0  0
 14 36  1  0  0  0  0
 15 18  2  0  0  0  0
 15 19  1  0  0  0  0
 16 17  2  0  0  0  0
 16 37  1  0  0  0  0
 17 38  1  0  0  0  0
 18 26  1  0  0  0  0
 18 29  1  0  0  0  0
 19 27  2  0  0  0  0
 21 25  1  0  0  0  0
 22 24  2  0  0  0  0
 23 40  1  0  0  0  0
 24 28  1  0  0  0  0
 25 28  2  0  0  0  0
 26 30  2  0  0  0  0
 26 41  1  0  0  0  0
 27 30  1  0  0  0  0
 27 42  1  0  0  0  0
 28 43  1  0  0  0  0
 29 44  1  0  0  0  0
 29 45  1  0  0  0  0
 29 46  1  0  0  0  0
 30 47  1  0  0  0  0
 31 34  1  0  0  0  0
 32 49  1  0  0  0  0
 32 50  1  0  0  0  0
 32 51  1  0  0  0  0
 33 52  1  0  0  0  0
 33 53  1  0  0  0  0
 33 54  1  0  0  0  0
 34 35  2  0  0  0  0
 34 55  1  0  0  0  0
 35 56  1  0  0  0  0
 35 57  1  0  0  0  0
M  END
> <PUBCHEM_COMPOUND_CID>
72710839

> <PUBCHEM_CONFORMER_RMSD>
1

> <PUBCHEM_CONFORMER_DIVERSEORDER>
2
20
19
28
8
7
23
33
25
27
14
32
13
36
35
34
18
11
9
12
37
31
22
24
10
29
1
30
16
17
26
5
15
4
21
6
3

> <PUBCHEM_MMFF94_PARTIAL_CHARGES>
45
1 -0.18
13 0.31
14 -0.15
15 0.1
16 -0.15
17 -0.15
18 -0.14
19 0.12
2 -0.18
20 0.72
21 0.18
22 0.18
23 0.16
24 0.08
25 0.08
26 -0.15
27 -0.15
28 -0.15
29 0.14
3 -0.36
30 -0.15
31 0.62
32 0.28
33 0.28
34 -0.14
35 -0.3
36 0.15
37 0.15
38 0.15
39 0.4
4 -0.36
40 0.15
41 0.15
42 0.15
43 0.15
47 0.15
48 0.37
5 -0.57
55 0.15
56 0.15
57 0.15
6 -0.6
7 -0.62
8 -0.62
9 -0.55

> <PUBCHEM_EFFECTIVE_ROTOR_COUNT>
8

> <PUBCHEM_PHARMACOPHORE_FEATURES>
12
1 3 acceptor
1 35 hydrophobe
1 4 acceptor
1 5 acceptor
1 6 donor
1 7 acceptor
1 9 donor
4 6 7 8 20 cation
6 10 11 13 14 16 17 rings
6 12 21 22 24 25 28 rings
6 15 18 19 26 27 30 rings
6 7 8 11 13 20 23 rings

> <PUBCHEM_HEAVY_ATOM_COUNT>
35

> <PUBCHEM_ATOM_DEF_STEREO_COUNT>
0

> <PUBCHEM_ATOM_UDEF_STEREO_COUNT>
0

> <PUBCHEM_BOND_DEF_STEREO_COUNT>
0

> <PUBCHEM_BOND_UDEF_STEREO_COUNT>
0

> <PUBCHEM_ISOTOPIC_ATOM_COUNT>
0

> <PUBCHEM_COMPONENT_COUNT>
1

> <PUBCHEM_CACTVS_TAUTO_COUNT>
8

> <PUBCHEM_CONFORMER_ID>
04557AB700000002

> <PUBCHEM_MMFF94_ENERGY>
149.1548

> <PUBCHEM_FEATURE_SELFOVERLAP>
60.931

> <PUBCHEM_SHAPE_FINGERPRINT>
10554248 39 16271921567808491580
10835480 77 18271802441083350496
11007060 377 16271065172386825469
11524674 6 18131348566920544647
12236239 1 17203320122644613212
12422481 6 18410579504237856526
13782708 43 18041274366759398402
14294032 229 15648734783738054061
14856354 85 18341335595363408381
15021287 119 17458350770965172749
15230672 131 18191023408929125330
15274700 242 17023448798789266371
15348495 7 18342176699798575329
15352257 5 18409169892024364950
15361156 5 17968109645821208222
15439362 3 17541657215750121853
15537594 2 17458060452524133947
1577012 14 17131825474064828620
16110190 28 18334300889766885191
18608769 82 18335419097920044052
19315958 150 18341058441118333835
21130935 74 18412545409743238034
21814621 53 18342174440724931896
22122407 14 16988848297682179737
23081809 10 17203596091193636716
23516275 137 17973184836571135386
23522609 53 16228047720717512901
23559900 14 18413101775443099440
24771293 8 18042122219332597356
312425 54 18410856576840771003
3178227 256 18271802360349559254
335507 130 18041287642524461636
3383291 50 17822302331516593627
397830 11 18340486758942836592
4017518 198 18338796711736659855
4073 2 18410854399793628674
4144715 1 18412833472988888145
5080951 261 17969479649983471775
5104073 3 18411408532289967794
5364581 5 18196931295595790961
552612 73 18270396238752392480
6086070 43 15913035569015899129
68570916 9 18189897689948498500
9953998 17 18409444825512546441

> <PUBCHEM_SHAPE_MULTIPOLES>
686.49
20.92
4.26
1.58
7.74
4.75
0.29
-2.69
-8.43
-2.07
-0.39
-0.46
-0.83
2.62

> <PUBCHEM_SHAPE_SELFOVERLAP>
1486.036

> <PUBCHEM_SHAPE_VOLUME>
376.5

> <PUBCHEM_COORDINATE_TYPE>
2
5
10

$$$$
118036971
  -OEChem-11282412143D

 67 70  0     1  0  0  0  0  0999 V2000
    6.4181    0.3462   -0.8590 O   0  0  0  0  0  0  0  0  0  0  0  0
   -1.6667   -4.1581    0.3575 O   0  0  0  0  0  0  0  0  0  0  0  0
   -0.2607    1.3875   -1.8316 O   0  0  0  0  0  0  0  0  0  0  0  0
   -5.4118    4.1221   -0.9915 O   0  0  0  0  0  0  0  0  0  0  0  0
    4.5422    1.6711   -0.5379 N   0  0  0  0  0  0  0  0  0  0  0  0
    0.4220   -3.2303   -0.0315 N   0  0  0  0  0  0  0  0  0  0  0  0
    5.6226    2.4533    1.9052 N   0  0  1  0  0  0  0  0  0  0  0  0
    0.7494   -0.9278   -0.7160 N   0  0  0  0  0  0  0  0  0  0  0  0
   -1.5148   -1.8601    0.1029 N   0  0  0  0  0  0  0  0  0  0  0  0
   -3.7887   -2.4087    0.5350 N   0  0  0  0  0  0  0  0  0  0  0  0
   -4.7712    1.6756    0.2922 N   0  0  0  0  0  0  0  0  0  0  0  0
   -7.9278   -0.0047    0.9782 N   0  0  0  0  0  0  0  0  0  0  0  0
    3.3219   -3.6677   -0.2014 C   0  0  0  0  0  0  0  0  0  0  0  0
    2.6752   -2.3431   -0.4958 C   0  0  0  0  0  0  0  0  0  0  0  0
    2.4205   -4.5322    0.6600 C   0  0  0  0  0  0  0  0  0  0  0  0
    3.7863    2.5484    0.3479 C   0  0  0  0  0  0  0  0  0  0  0  0
    3.8063    1.0808   -1.6467 C   0  0  0  0  0  0  0  0  0  0  0  0
    1.0295   -4.5658    0.0541 C   0  0  0  0  0  0  0  0  0  0  0  0
    4.6642    3.3632    1.2802 C   0  0  0  0  0  0  0  0  0  0  0  0
    2.9353   -0.0467   -1.2144 C   0  0  0  0  0  0  0  0  0  0  0  0
    1.2886   -2.1367   -0.4137 C   0  0  0  0  0  0  0  0  0  0  0  0
    3.4898   -1.2794   -0.9106 C   0  0  0  0  0  0  0  0  0  0  0  0
    6.5491    1.9448    0.8928 C   0  0  0  0  0  0  0  0  0  0  0  0
    5.8227    1.2235   -0.2269 C   0  0  0  0  0  0  0  0  0  0  0  0
    1.5682    0.0768   -1.1001 C   0  0  0  0  0  0  0  0  0  0  0  0
    6.3614    3.1383    2.9661 C   0  0  0  0  0  0  0  0  0  0  0  0
   -0.9891   -3.1484    0.1435 C   0  0  0  0  0  0  0  0  0  0  0  0
    0.8935    1.3308   -1.3995 C   0  0  0  0  0  0  0  0  0  0  0  0
   -2.8599   -1.4580    0.2876 C   0  0  0  0  0  0  0  0  0  0  0  0
   -3.1405   -0.1039    0.1995 C   0  0  0  0  0  0  0  0  0  0  0  0
   -4.4591    0.3004    0.3766 C   0  0  0  0  0  0  0  0  0  0  0  0
   -5.4429   -0.6483    0.6327 C   0  0  0  0  0  0  0  0  0  0  0  0
   -5.0593   -1.9781    0.7016 C   0  0  0  0  0  0  0  0  0  0  0  0
   -3.7872    2.6784    0.0312 C   0  0  0  0  0  0  0  0  0  0  0  0
   -4.4325    4.0538    0.0374 C   0  0  0  0  0  0  0  0  0  0  0  0
   -6.8143   -0.2931    0.8234 C   0  0  0  0  0  0  0  0  0  0  0  0
   -6.0401    5.3960   -1.0289 C   0  0  0  0  0  0  0  0  0  0  0  0
    3.5316   -4.1735   -1.1518 H   0  0  0  0  0  0  0  0  0  0  0  0
    4.2761   -3.5202    0.3178 H   0  0  0  0  0  0  0  0  0  0  0  0
    2.3705   -4.1248    1.6779 H   0  0  0  0  0  0  0  0  0  0  0  0
    2.8309   -5.5453    0.7327 H   0  0  0  0  0  0  0  0  0  0  0  0
    3.1017    1.9215    0.9315 H   0  0  0  0  0  0  0  0  0  0  0  0
    3.1938    3.2373   -0.2626 H   0  0  0  0  0  0  0  0  0  0  0  0
    4.5258    0.6909   -2.3793 H   0  0  0  0  0  0  0  0  0  0  0  0
    3.2817    1.8745   -2.1869 H   0  0  0  0  0  0  0  0  0  0  0  0
    1.0476   -4.9827   -0.9607 H   0  0  0  0  0  0  0  0  0  0  0  0
    0.3994   -5.2261    0.6599 H   0  0  0  0  0  0  0  0  0  0  0  0
    5.1754    4.1632    0.7284 H   0  0  0  0  0  0  0  0  0  0  0  0
    4.0242    3.8403    2.0321 H   0  0  0  0  0  0  0  0  0  0  0  0
    4.5607   -1.4397   -1.0008 H   0  0  0  0  0  0  0  0  0  0  0  0
    7.2327    1.2213    1.3533 H   0  0  0  0  0  0  0  0  0  0  0  0
    7.1477    2.7468    0.4426 H   0  0  0  0  0  0  0  0  0  0  0  0
    7.0647    2.4513    3.4501 H   0  0  0  0  0  0  0  0  0  0  0  0
    5.6766    3.4868    3.7473 H   0  0  0  0  0  0  0  0  0  0  0  0
    6.9241    4.0009    2.5908 H   0  0  0  0  0  0  0  0  0  0  0  0
    1.4457    2.2675   -1.2490 H   0  0  0  0  0  0  0  0  0  0  0  0
   -0.8732   -1.0922   -0.0530 H   0  0  0  0  0  0  0  0  0  0  0  0
   -2.3372    0.5961   -0.0016 H   0  0  0  0  0  0  0  0  0  0  0  0
   -5.7394    1.9512    0.4096 H   0  0  0  0  0  0  0  0  0  0  0  0
   -5.7782   -2.7683    0.8984 H   0  0  0  0  0  0  0  0  0  0  0  0
   -3.3335    2.5094   -0.9528 H   0  0  0  0  0  0  0  0  0  0  0  0
   -3.0001    2.6638    0.7938 H   0  0  0  0  0  0  0  0  0  0  0  0
   -3.6657    4.8175   -0.1366 H   0  0  0  0  0  0  0  0  0  0  0  0
   -4.9072    4.2466    1.0073 H   0  0  0  0  0  0  0  0  0  0  0  0
   -6.7788    5.3918   -1.8348 H   0  0  0  0  0  0  0  0  0  0  0  0
   -5.3052    6.1807   -1.2331 H   0  0  0  0  0  0  0  0  0  0  0  0
   -6.5551    5.5977   -0.0847 H   0  0  0  0  0  0  0  0  0  0  0  0
  1 24  2  0  0  0  0
  2 27  2  0  0  0  0
  3 28  2  0  0  0  0
  4 35  1  0  0  0  0
  4 37  1  0  0  0  0
  5 16  1  0  0  0  0
  5 17  1  0  0  0  0
  5 24  1  0  0  0  0
  6 18  1  0  0  0  0
  6 21  1  0  0  0  0
  6 27  1  0  0  0  0
  7 19  1  0  0  0  0
  7 23  1  0  0  0  0
  7 26  1  0  0  0  0
  8 21  2  0  0  0  0
  8 25  1  0  0  0  0
  9 27  1  0  0  0  0
  9 29  1  0  0  0  0
  9 57  1  0  0  0  0
 10 29  2  0  0  0  0
 10 33  1  0  0  0  0
 11 31  1  0  0  0  0
 11 34  1  0  0  0  0
 11 59  1  0  0  0  0
 12 36  3  0  0  0  0
 13 14  1  0  0  0  0
 13 15  1  0  0  0  0
 13 38  1  0  0  0  0
 13 39  1  0  0  0  0
 14 21  1  0  0  0  0
 14 22  2  0  0  0  0
 15 18  1  0  0  0  0
 15 40  1  0  0  0  0
 15 41  1  0  0  0  0
 16 19  1  0  0  0  0
 16 42  1  0  0  0  0
 16 43  1  0  0  0  0
 17 20  1  0  0  0  0
 17 44  1  0  0  0  0
 17 45  1  0  0  0  0
 18 46  1  0  0  0  0
 18 47  1  0  0  0  0
 19 48  1  0  0  0  0
 19 49  1  0  0  0  0
 20 22  1  0  0  0  0
 20 25  2  0  0  0  0
 22 50  1  0  0  0  0
 23 24  1  0  0  0  0
 23 51  1  0  0  0  0
 23 52  1  0  0  0  0
 25 28  1  0  0  0  0
 26 53  1  0  0  0  0
 26 54  1  0  0  0  0
 26 55  1  0  0  0  0
 28 56  1  0  0  0  0
 29 30  1  0  0  0  0
 30 31  2  0  0  0  0
 30 58  1  0  0  0  0
 31 32  1  0  0  0  0
 32 33  2  0  0  0  0
 32 36  1  0  0  0  0
 33 60  1  0  0  0  0
 34 35  1  0  0  0  0
 34 61  1  0  0  0  0
 34 62  1  0  0  0  0
 35 63  1  0  0  0  0
 35 64  1  0  0  0  0
 37 65  1  0  0  0  0
 37 66  1  0  0  0  0
 37 67  1  0  0  0  0
M  END
> <PUBCHEM_COMPOUND_CID>
118036971

> <PUBCHEM_CONFORMER_RMSD>
1.2

> <PUBCHEM_CONFORMER_DIVERSEORDER>
1
44
39
51
21
41
31
16
46
35
20
13
10
3
42
32
23
24
26
38
27
9
34
40
11
12
33
22
8
5
43
28
30
7
49
4
25
19
47
36
48
18
37
2
50
15
6
29
45
17
14

> <PUBCHEM_MMFF94_PARTIAL_CHARGES>
42
1 -0.57
10 -0.62
11 -0.87
12 -0.56
13 0.14
14 -0.14
16 0.3
17 0.44
18 0.3
19 0.27
2 -0.57
20 -0.14
21 0.43
22 -0.15
23 0.33
24 0.57
25 0.4
26 0.27
27 0.69
28 0.42
29 0.43
3 -0.57
30 -0.15
31 0.1
32 0.07
33 0.16
34 0.37
35 0.28
36 0.48
37 0.28
4 -0.56
5 -0.66
50 0.15
56 0.06
57 0.37
58 0.15
59 0.4
6 -0.48
60 0.15
7 -0.81
8 -0.62
9 -0.55

> <PUBCHEM_EFFECTIVE_ROTOR_COUNT>
11.8

> <PUBCHEM_PHARMACOPHORE_FEATURES>
13
1 1 acceptor
1 11 cation
1 11 donor
1 12 acceptor
1 2 acceptor
1 3 acceptor
1 4 acceptor
1 7 cation
1 9 donor
6 10 29 30 31 32 33 rings
6 5 7 16 19 23 24 rings
6 6 13 14 15 18 21 rings
6 8 14 20 21 22 25 rings

> <PUBCHEM_HEAVY_ATOM_COUNT>
37

> <PUBCHEM_ATOM_DEF_STEREO_COUNT>
0

> <PUBCHEM_ATOM_UDEF_STEREO_COUNT>
0

> <PUBCHEM_BOND_DEF_STEREO_COUNT>
0

> <PUBCHEM_BOND_UDEF_STEREO_COUNT>
0

> <PUBCHEM_ISOTOPIC_ATOM_COUNT>
0

> <PUBCHEM_COMPONENT_COUNT>
1

> <PUBCHEM_CACTVS_TAUTO_COUNT>
91

> <PUBCHEM_CONFORMER_ID>
070919EB00000001

> <PUBCHEM_MMFF94_ENERGY>
109.4548

> <PUBCHEM_FEATURE_SELFOVERLAP>
66

> <PUBCHEM_SHAPE_FINGERPRINT>
12422481 6 17894899755350490166
12925494 130 18191026708170370693
14223995 32 18411133611428582420
14394314 77 18341061744476264161
14739800 52 18413386544802293914
14790565 3 18189915256327257964
15320467 1 18336557092075373909
15420108 30 18268142235969241302
16067690 210 17828753285551373080
19053607 189 18260554398207964964
19246450 95 18267560525914487896
21033648 29 18196656405072151794
21133410 221 17198801288721090624
21859007 373 18270406104740215822
23522609 53 17246953340362220564
23569914 2 17128133365959389432
3918712 181 18265061399470610868
4144715 1 18115323184703245979
508180 173 18122086216501555522
6176135 31 18337678628058274737
6371009 1 18192426596266122167
6371380 46 18341620373802978462
6677587 24 17418085486766753556
9961470 85 18120087287287988565
9981440 41 18263370359266755395

> <PUBCHEM_SHAPE_MULTIPOLES>
698.12
18.27
7.13
1.52
10.37
0.31
-0.47
19.53
-6.47
2.17
-0.79
-2.36
1.54
4.99

> <PUBCHEM_SHAPE_SELFOVERLAP>
1482.828

> <PUBCHEM_SHAPE_VOLUME>
381.9

> <PUBCHEM_COORDINATE_TYPE>
2
5
10

$$$$
156024486
  -OEChem-11282412143D

 52 56  0     1  0  0  0  0  0999 V2000
    2.1080    3.1503    1.8118 F   0  0  0  0  0  0  0  0  0  0  0  0
    2.9548    1.4484    2.8731 F   0  0  0  0  0  0  0  0  0  0  0  0
    4.1525   -3.3120   -1.9560 F   0  0  0  0  0  0  0  0  0  0  0  0
    2.1663    3.2792   -0.8253 O   0  0  0  0  0  0  0  0  0  0  0  0
   -0.5249   -2.4326    0.8387 O   0  0  0  0  0  0  0  0  0  0  0  0
   -4.7971    0.1259    0.3305 O   0  0  0  0  0  0  0  0  0  0  0  0
    1.7449    0.7387    0.4687 N   0  0  0  0  0  0  0  0  0  0  0  0
   -2.7507   -0.9470    0.0871 N   0  0  0  0  0  0  0  0  0  0  0  0
   -1.4447    2.8558   -1.0755 N   0  0  0  0  0  0  0  0  0  0  0  0
   -0.5590    0.8960   -0.0141 N   0  0  0  0  0  0  0  0  0  0  0  0
   -2.6355    3.3922   -1.4476 N   0  0  0  0  0  0  0  0  0  0  0  0
    3.0419    1.4260    0.5346 C   0  0  1  0  0  0  0  0  0  0  0  0
    1.6189   -0.5487    1.1720 C   0  0  0  0  0  0  0  0  0  0  0  0
   -2.9619   -2.2424    0.7528 C   0  0  0  0  0  0  0  0  0  0  0  0
    3.1862    2.2833   -0.7258 C   0  0  0  0  0  0  0  0  0  0  0  0
    0.6463    1.4082   -0.0863 C   0  0  0  0  0  0  0  0  0  0  0  0
    0.8970    2.7518   -0.7478 C   0  0  0  0  0  0  0  0  0  0  0  0
    3.1233    2.2635    1.8126 C   0  0  0  0  0  0  0  0  0  0  0  0
    1.6791   -1.7506    0.2451 C   0  0  0  0  0  0  0  0  0  0  0  0
   -1.7211   -3.1132    0.4191 C   0  0  0  0  0  0  0  0  0  0  0  0
   -1.6128    1.6065   -0.5002 C   0  0  0  0  0  0  0  0  0  0  0  0
   -0.1778    3.4107   -1.1984 C   0  0  0  0  0  0  0  0  0  0  0  0
    0.6244   -2.6838    0.1286 C   0  0  0  0  0  0  0  0  0  0  0  0
   -4.2185   -2.9478    0.2253 C   0  0  0  0  0  0  0  0  0  0  0  0
   -3.0719   -2.0312    2.2692 C   0  0  0  0  0  0  0  0  0  0  0  0
   -2.9683    1.3292   -0.5137 C   0  0  0  0  0  0  0  0  0  0  0  0
   -3.6146    0.1310    0.0066 C   0  0  0  0  0  0  0  0  0  0  0  0
    2.8656   -1.9865   -0.4752 C   0  0  0  0  0  0  0  0  0  0  0  0
   -3.5398    2.4785   -1.0905 C   0  0  0  0  0  0  0  0  0  0  0  0
    0.7974   -3.8302   -0.6632 C   0  0  0  0  0  0  0  0  0  0  0  0
    3.0115   -3.1123   -1.2840 C   0  0  0  0  0  0  0  0  0  0  0  0
    1.9804   -4.0370   -1.3719 C   0  0  0  0  0  0  0  0  0  0  0  0
    3.8540    0.6922    0.5554 H   0  0  0  0  0  0  0  0  0  0  0  0
    0.6994   -0.5494    1.7682 H   0  0  0  0  0  0  0  0  0  0  0  0
    2.4256   -0.6675    1.9069 H   0  0  0  0  0  0  0  0  0  0  0  0
    4.1498    2.8045   -0.7151 H   0  0  0  0  0  0  0  0  0  0  0  0
    3.1658    1.6618   -1.6309 H   0  0  0  0  0  0  0  0  0  0  0  0
    4.0727    2.7971    1.9103 H   0  0  0  0  0  0  0  0  0  0  0  0
   -1.7732   -4.0819    0.9300 H   0  0  0  0  0  0  0  0  0  0  0  0
   -1.7160   -3.2764   -0.6669 H   0  0  0  0  0  0  0  0  0  0  0  0
   -1.8106   -0.8167   -0.2735 H   0  0  0  0  0  0  0  0  0  0  0  0
   -0.1116    4.3875   -1.6631 H   0  0  0  0  0  0  0  0  0  0  0  0
   -4.1908   -3.0399   -0.8665 H   0  0  0  0  0  0  0  0  0  0  0  0
   -4.3102   -3.9551    0.6469 H   0  0  0  0  0  0  0  0  0  0  0  0
   -5.1315   -2.4018    0.4837 H   0  0  0  0  0  0  0  0  0  0  0  0
   -3.1464   -2.9885    2.7966 H   0  0  0  0  0  0  0  0  0  0  0  0
   -2.2023   -1.4939    2.6643 H   0  0  0  0  0  0  0  0  0  0  0  0
   -3.9581   -1.4398    2.5256 H   0  0  0  0  0  0  0  0  0  0  0  0
    3.7044   -1.3011   -0.4004 H   0  0  0  0  0  0  0  0  0  0  0  0
   -4.5841    2.6872   -1.2752 H   0  0  0  0  0  0  0  0  0  0  0  0
    0.0286   -4.5940   -0.7384 H   0  0  0  0  0  0  0  0  0  0  0  0
    2.0976   -4.9256   -1.9851 H   0  0  0  0  0  0  0  0  0  0  0  0
  1 18  1  0  0  0  0
  2 18  1  0  0  0  0
  3 31  1  0  0  0  0
  4 15  1  0  0  0  0
  4 17  1  0  0  0  0
  5 20  1  0  0  0  0
  5 23  1  0  0  0  0
  6 27  2  0  0  0  0
  7 12  1  0  0  0  0
  7 13  1  0  0  0  0
  7 16  1  0  0  0  0
  8 14  1  0  0  0  0
  8 27  1  0  0  0  0
  8 41  1  0  0  0  0
  9 11  1  0  0  0  0
  9 21  1  0  0  0  0
  9 22  1  0  0  0  0
 10 16  2  0  0  0  0
 10 21  1  0  0  0  0
 11 29  2  0  0  0  0
 12 15  1  0  0  0  0
 12 18  1  0  0  0  0
 12 33  1  0  0  0  0
 13 19  1  0  0  0  0
 13 34  1  0  0  0  0
 13 35  1  0  0  0  0
 14 20  1  0  0  0  0
 14 24  1  0  0  0  0
 14 25  1  0  0  0  0
 15 36  1  0  0  0  0
 15 37  1  0  0  0  0
 16 17  1  0  0  0  0
 17 22  2  0  0  0  0
 18 38  1  0  0  0  0
 19 23  2  0  0  0  0
 19 28  1  0  0  0  0
 20 39  1  0  0  0  0
 20 40  1  0  0  0  0
 21 26  2  0  0  0  0
 22 42  1  0  0  0  0
 23 30  1  0  0  0  0
 24 43  1  0  0  0  0
 24 44  1  0  0  0  0
 24 45  1  0  0  0  0
 25 46  1  0  0  0  0
 25 47  1  0  0  0  0
 25 48  1  0  0  0  0
 26 27  1  0  0  0  0
 26 29  1  0  0  0  0
 28 31  2  0  0  0  0
 28 49  1  0  0  0  0
 29 50  1  0  0  0  0
 30 32  2  0  0  0  0
 30 51  1  0  0  0  0
 31 32  1  0  0  0  0
 32 52  1  0  0  0  0
M  END
> <PUBCHEM_COMPOUND_CID>
156024486

> <PUBCHEM_CONFORMER_RMSD>
0.8

> <PUBCHEM_CONFORMER_DIVERSEORDER>
1
5
3
2
4

> <PUBCHEM_MMFF94_PARTIAL_CHARGES>
36
1 -0.34
10 -0.58
11 -0.71
12 0.37
13 0.51
14 0.3
15 0.28
16 0.49
17 0.09
18 0.68
19 -0.14
2 -0.34
20 0.28
21 -0.03
22 -0.18
23 0.08
26 -0.09
27 0.72
28 -0.15
29 0.14
3 -0.19
30 -0.15
31 0.19
32 -0.15
4 -0.36
41 0.37
42 0.15
49 0.15
5 -0.36
50 0.15
51 0.15
52 0.15
6 -0.57
7 -0.79
8 -0.73
9 0.6

> <PUBCHEM_EFFECTIVE_ROTOR_COUNT>
2.6

> <PUBCHEM_PHARMACOPHORE_FEATURES>
11
1 11 acceptor
1 4 acceptor
1 5 acceptor
1 6 acceptor
1 8 donor
3 14 24 25 hydrophobe
3 7 10 16 cation
5 9 11 21 26 29 rings
6 19 23 28 30 31 32 rings
6 4 7 12 15 16 17 rings
6 9 10 16 17 21 22 rings

> <PUBCHEM_HEAVY_ATOM_COUNT>
32

> <PUBCHEM_ATOM_DEF_STEREO_COUNT>
1

> <PUBCHEM_ATOM_UDEF_STEREO_COUNT>
0

> <PUBCHEM_BOND_DEF_STEREO_COUNT>
0

> <PUBCHEM_BOND_UDEF_STEREO_COUNT>
0

> <PUBCHEM_ISOTOPIC_ATOM_COUNT>
0

> <PUBCHEM_COMPONENT_COUNT>
1

> <PUBCHEM_CACTVS_TAUTO_COUNT>
-1

> <PUBCHEM_CONFORMER_ID>
094CBEA600000001

> <PUBCHEM_MMFF94_ENERGY>
93.7115

> <PUBCHEM_FEATURE_SELFOVERLAP>
55.985

> <PUBCHEM_SHAPE_FINGERPRINT>
10010297 198 17681807921030285544
10032420 55 17542771024115250908
10616163 171 18189052169595743793
10653451 467 18198605680680850674
10675989 125 16315547702111515060
11513181 2 18269279117447505782
12124843 1 13077194321552197671
12156800 1 11609629714688833489
12422481 6 18267563849986819530
12553582 1 17545033806260849773
13122387 1 17687739437725498717
13140716 1 18337094701177877793
13149001 5 18194681458291359758
13402501 40 18337668599040060818
1361 2 18123469642863900175
13642711 20 16986856072574510355
14114206 34 17184733702809374134
14114207 22 15438974340742227369
14117953 113 18121774200001620071
14223421 5 18409726274819419997
14363568 33 18193585357057559707
14400156 260 13881614792883578576
14400156 96 17690610555387841243
14725015 67 18188482455359118459
14931854 50 17400078569805354103
14932702 115 18122366609187913812
15219462 58 17775568645495813065
15297060 5 17622754297345749769
15420108 30 17042324415683089905
15840311 113 18201732730816258907
15950262 2 14568201757496857647
15968369 26 18194099851733461804
161222 619 17698403739080867730
17974551 9 17487618520276335625
18681886 176 17903639927450786628
19591789 44 18192436491881522740
1979834 28 18051142676882018059
20028762 73 17622731238141500471
20642791 239 17686074794528093572
20764821 26 18262516979228687551
20775438 99 17979315800066082695
21049683 271 17978831009643092382
21141583 151 17763743191648756391
22113638 7 17400914697143551431
22182313 1 18409164385522421915
22907989 373 17256014036853907446
23536364 44 17693958292725642094
23559900 14 18264762164788040549
238918 7 18268972306896058714
25019877 29 16551444108099427174
255183 313 17695893811415973688
35225 105 16830586895718615208
352729 6 18262221339682521373
4280585 95 18119527635869008918
4403749 210 17979323655240104288
463206 1 18048617927553842260
469060 322 16235682673593967362
46939830 39 16241613550935868819
484985 159 13033548434446737350
50150288 127 16050697436266069746
5171179 24 18343016683838265102
5895379 119 16468119904421306392
6287921 2 18269284610969048635
6823239 73 18335985255274928096
70251023 43 18057304116647590847
9709674 26 18408879616748867885
9925002 15 16755208961269144915

> <PUBCHEM_SHAPE_MULTIPOLES>
594.21
7.13
6.47
1.72
3.96
1.87
0.86
0.83
0.67
-2.01
-2.7
-1.14
-0.19
3.81

> <PUBCHEM_SHAPE_SELFOVERLAP>
1311.166

> <PUBCHEM_SHAPE_VOLUME>
315.3

> <PUBCHEM_COORDINATE_TYPE>
2
5
10

$$$$
91667513
  -OEChem-11282412143D

 57 60  0     0  0  0  0  0  0999 V2000
   -6.0645    3.0036    1.3765 O   0  0  0  0  0  0  0  0  0  0  0  0
    1.9149   -3.9069   -1.2383 O   0  0  0  0  0  0  0  0  0  0  0  0
    4.0222    2.0445   -1.0424 O   0  0  0  0  0  0  0  0  0  0  0  0
   -5.6079    0.9676    0.3474 N   0  0  0  0  0  0  0  0  0  0  0  0
   -1.3327   -1.0516   -0.0207 N   0  0  0  0  0  0  0  0  0  0  0  0
    2.2081   -3.6942    1.0260 N   0  0  0  0  0  0  0  0  0  0  0  0
   -3.7419   -1.2629    0.3206 C   0  0  0  0  0  0  0  0  0  0  0  0
   -4.1646   -0.5469   -0.9742 C   0  0  0  0  0  0  0  0  0  0  0  0
   -3.8324   -0.2947    1.5134 C   0  0  0  0  0  0  0  0  0  0  0  0
   -5.5475    0.0928   -0.8334 C   0  0  0  0  0  0  0  0  0  0  0  0
   -5.2261    0.3214    1.6062 C   0  0  0  0  0  0  0  0  0  0  0  0
   -2.3671   -1.8930    0.2012 C   0  0  0  0  0  0  0  0  0  0  0  0
   -6.0055    2.3024    0.3647 C   0  0  0  0  0  0  0  0  0  0  0  0
   -2.2370   -3.2672    0.3228 C   0  0  0  0  0  0  0  0  0  0  0  0
   -0.1096   -1.6181   -0.1253 C   0  0  0  0  0  0  0  0  0  0  0  0
   -0.9631   -3.8126    0.2096 C   0  0  0  0  0  0  0  0  0  0  0  0
    0.1263   -2.9792   -0.0187 C   0  0  0  0  0  0  0  0  0  0  0  0
   -6.3890    2.9241   -0.9185 C   0  0  0  0  0  0  0  0  0  0  0  0
    0.9569   -0.6704   -0.3624 C   0  0  0  0  0  0  0  0  0  0  0  0
    1.4568   -3.5592   -0.1369 C   0  0  0  0  0  0  0  0  0  0  0  0
    1.6299   -0.0941    0.7149 C   0  0  0  0  0  0  0  0  0  0  0  0
    1.3138   -0.3337   -1.6682 C   0  0  0  0  0  0  0  0  0  0  0  0
   -6.1905    4.2333   -1.0850 C   0  0  0  0  0  0  0  0  0  0  0  0
    2.6599    0.8184    0.4866 C   0  0  0  0  0  0  0  0  0  0  0  0
    2.3436    0.5789   -1.8967 C   0  0  0  0  0  0  0  0  0  0  0  0
    3.0167    1.1548   -0.8192 C   0  0  0  0  0  0  0  0  0  0  0  0
    5.1845    1.9013   -0.3032 C   0  0  0  0  0  0  0  0  0  0  0  0
    5.7539    0.6389   -0.1361 C   0  0  0  0  0  0  0  0  0  0  0  0
    5.7857    3.0195    0.2746 C   0  0  0  0  0  0  0  0  0  0  0  0
    6.9244    0.4948    0.6089 C   0  0  0  0  0  0  0  0  0  0  0  0
    6.9563    2.8754    1.0194 C   0  0  0  0  0  0  0  0  0  0  0  0
    7.5255    1.6130    1.1865 C   0  0  0  0  0  0  0  0  0  0  0  0
   -4.4722   -2.0653    0.4990 H   0  0  0  0  0  0  0  0  0  0  0  0
   -3.4356    0.2349   -1.2252 H   0  0  0  0  0  0  0  0  0  0  0  0
   -4.1717   -1.2537   -1.8129 H   0  0  0  0  0  0  0  0  0  0  0  0
   -3.5994   -0.8202    2.4474 H   0  0  0  0  0  0  0  0  0  0  0  0
   -3.0907    0.5076    1.4057 H   0  0  0  0  0  0  0  0  0  0  0  0
   -5.7768    0.6258   -1.7563 H   0  0  0  0  0  0  0  0  0  0  0  0
   -6.3139   -0.6801   -0.7021 H   0  0  0  0  0  0  0  0  0  0  0  0
   -5.9742   -0.4527    1.8150 H   0  0  0  0  0  0  0  0  0  0  0  0
   -5.2562    1.0338    2.4367 H   0  0  0  0  0  0  0  0  0  0  0  0
   -3.0903   -3.9124    0.5010 H   0  0  0  0  0  0  0  0  0  0  0  0
   -0.8320   -4.8877    0.3005 H   0  0  0  0  0  0  0  0  0  0  0  0
   -6.8701    2.3456   -1.6954 H   0  0  0  0  0  0  0  0  0  0  0  0
    1.3604   -0.3424    1.7389 H   0  0  0  0  0  0  0  0  0  0  0  0
    0.7992   -0.7742   -2.5190 H   0  0  0  0  0  0  0  0  0  0  0  0
   -6.4899    4.7122   -2.0116 H   0  0  0  0  0  0  0  0  0  0  0  0
   -5.7271    4.8595   -0.3303 H   0  0  0  0  0  0  0  0  0  0  0  0
    3.1511    1.2686    1.3452 H   0  0  0  0  0  0  0  0  0  0  0  0
    2.6177    0.8367   -2.9160 H   0  0  0  0  0  0  0  0  0  0  0  0
    1.8539   -3.4068    1.9328 H   0  0  0  0  0  0  0  0  0  0  0  0
    3.1439   -4.0851    1.0002 H   0  0  0  0  0  0  0  0  0  0  0  0
    5.3190   -0.2459   -0.5932 H   0  0  0  0  0  0  0  0  0  0  0  0
    5.3462    4.0051    0.1479 H   0  0  0  0  0  0  0  0  0  0  0  0
    7.3706   -0.4874    0.7350 H   0  0  0  0  0  0  0  0  0  0  0  0
    7.4245    3.7461    1.4691 H   0  0  0  0  0  0  0  0  0  0  0  0
    8.4374    1.5009    1.7656 H   0  0  0  0  0  0  0  0  0  0  0  0
  1 13  2  0  0  0  0
  2 20  2  0  0  0  0
  3 26  1  0  0  0  0
  3 27  1  0  0  0  0
  4 10  1  0  0  0  0
  4 11  1  0  0  0  0
  4 13  1  0  0  0  0
  5 12  2  0  0  0  0
  5 15  1  0  0  0  0
  6 20  1  0  0  0  0
  6 51  1  0  0  0  0
  6 52  1  0  0  0  0
  7  8  1  0  0  0  0
  7  9  1  0  0  0  0
  7 12  1  0  0  0  0
  7 33  1  0  0  0  0
  8 10  1  0  0  0  0
  8 34  1  0  0  0  0
  8 35  1  0  0  0  0
  9 11  1  0  0  0  0
  9 36  1  0  0  0  0
  9 37  1  0  0  0  0
 10 38  1  0  0  0  0
 10 39  1  0  0  0  0
 11 40  1  0  0  0  0
 11 41  1  0  0  0  0
 12 14  1  0  0  0  0
 13 18  1  0  0  0  0
 14 16  2  0  0  0  0
 14 42  1  0  0  0  0
 15 17  2  0  0  0  0
 15 19  1  0  0  0  0
 16 17  1  0  0  0  0
 16 43  1  0  0  0  0
 17 20  1  0  0  0  0
 18 23  2  0  0  0  0
 18 44  1  0  0  0  0
 19 21  2  0  0  0  0
 19 22  1  0  0  0  0
 21 24  1  0  0  0  0
 21 45  1  0  0  0  0
 22 25  2  0  0  0  0
 22 46  1  0  0  0  0
 23 47  1  0  0  0  0
 23 48  1  0  0  0  0
 24 26  2  0  0  0  0
 24 49  1  0  0  0  0
 25 26  1  0  0  0  0
 25 50  1  0  0  0  0
 27 28  2  0  0  0  0
 27 29  1  0  0  0  0
 28 30  1  0  0  0  0
 28 53  1  0  0  0  0
 29 31  2  0  0  0  0
 29 54  1  0  0  0  0
 30 32  2  0  0  0  0
 30 55  1  0  0  0  0
 31 32  1  0  0  0  0
 31 56  1  0  0  0  0
 32 57  1  0  0  0  0
M  END
> <PUBCHEM_COMPOUND_CID>
91667513

> <PUBCHEM_CONFORMER_RMSD>
1

> <PUBCHEM_CONFORMER_DIVERSEORDER>
1
52
35
42
48
6
66
45
28
51
32
34
69
20
18
44
14
50
53
58
67
25
56
62
17
49
71
47
15
26
57
30
68
40
64
37
13
61
22
5
60
46
29
24
19
55
70
33
9
41
39
10
21
63
59
54
36
3
65
11
27
43
4
23
7
8
38
12
31
16
2

> <PUBCHEM_MMFF94_PARTIAL_CHARGES>
45
1 -0.57
10 0.3
11 0.3
12 0.17
13 0.62
14 -0.15
15 0.31
16 -0.15
17 0.09
18 -0.14
2 -0.57
20 0.54
21 -0.15
22 -0.15
23 -0.3
24 -0.15
25 -0.15
26 0.08
27 0.08
28 -0.15
29 -0.15
3 -0.17
30 -0.15
31 -0.15
32 -0.15
4 -0.66
42 0.15
43 0.15
44 0.15
45 0.15
46 0.15
47 0.15
48 0.15
49 0.15
5 -0.62
50 0.15
51 0.37
52 0.37
53 0.15
54 0.15
55 0.15
56 0.15
57 0.15
6 -0.8
7 0.14

> <PUBCHEM_EFFECTIVE_ROTOR_COUNT>
8.2

> <PUBCHEM_PHARMACOPHORE_FEATURES>
10
1 1 acceptor
1 2 acceptor
1 23 hydrophobe
1 3 acceptor
1 5 acceptor
1 6 donor
6 19 21 22 24 25 26 rings
6 27 28 29 30 31 32 rings
6 4 7 8 9 10 11 rings
6 5 12 14 15 16 17 rings

> <PUBCHEM_HEAVY_ATOM_COUNT>
32

> <PUBCHEM_ATOM_DEF_STEREO_COUNT>
0

> <PUBCHEM_ATOM_UDEF_STEREO_COUNT>
0

> <PUBCHEM_BOND_DEF_STEREO_COUNT>
0

> <PUBCHEM_BOND_UDEF_STEREO_COUNT>
0

> <PUBCHEM_ISOTOPIC_ATOM_COUNT>
0

> <PUBCHEM_COMPONENT_COUNT>
1

> <PUBCHEM_CACTVS_TAUTO_COUNT>
7

> <PUBCHEM_CONFORMER_ID>
0576BC3900000001

> <PUBCHEM_MMFF94_ENERGY>
108.0941

> <PUBCHEM_FEATURE_SELFOVERLAP>
50.748

> <PUBCHEM_SHAPE_FINGERPRINT>
10675989 125 18196660587858731555
11135609 201 18342749511872296891
11136131 41 18116146675893757443
117089 54 9511163176072782557
11720765 8 17625275112578822135
12107183 9 18188485887132647252
12422481 6 17749102327326984054
13673619 4 12396569772018353718
14223995 32 18411414020884307640
14251764 30 10809330153532792980
14466204 15 18339365287426370312
14767858 380 11599732804901314162
14790565 3 18264492956459070252
14950920 106 15864647183876403585
15021287 119 17023738069579712860
15420108 30 18411409640139147534
15439362 3 18339360760420785087
16067689 302 8862643729960444074
16991971 28 8430314662633780048
18608769 82 18198067070275908227
19053607 189 18194383517138900945
19246450 95 18335692871830508656
19304671 126 17773609213192142989
20554085 129 17988351655110474594
21033648 29 18041852705860163963
21196832 93 10735868491431084060
21424621 283 18342174509750239800
21859007 373 18261111825102092244
21987440 362 18410296891368801022
2303208 19 12685355418948912132
23522609 53 17387143164288730332
23559900 14 18055663796113291606
23569943 247 16879598623887376546
2838139 119 18343017843336782837
3411729 13 18408321060484317178
3459 39 18341607135600676361
3525247 154 17918270939692986449
397638 26 18407755937187734296
4144715 1 17976545232711640080
5385378 56 18334857191063680138
6201320 77 14707749707721074248
6371009 1 18190743231611773885
7226269 152 18059300971402288808
7970288 3 9511465511457398701
9896288 288 18044941405315799674
9981440 41 18336556009485230747
999808 66 11097851887197042409

> <PUBCHEM_SHAPE_MULTIPOLES>
625.99
19.53
5.4
1.39
6.63
1.84
0.11
-27.42
-4.39
-3.28
0.23
-0.34
-0.4
1.45

> <PUBCHEM_SHAPE_SELFOVERLAP>
1360.727

> <PUBCHEM_SHAPE_VOLUME>
337.7

> <PUBCHEM_COORDINATE_TYPE>
2
5
10

$$$$
46944259
  -OEChem-11282412143D

 49 52  0     1  0  0  0  0  0999 V2000
    2.1661    2.3794   -2.5365 Cl  0  0  0  0  0  0  0  0  0  0  0  0
    5.0085    0.9048    1.8871 Cl  0  0  0  0  0  0  0  0  0  0  0  0
    3.8829   -0.6131    0.1252 O   0  0  0  0  0  0  0  0  0  0  0  0
   -7.5130    1.0102   -1.6738 O   0  0  0  0  0  0  0  0  0  0  0  0
   -0.0347   -4.4094   -0.0631 N   0  0  0  0  0  0  0  0  0  0  0  0
   -1.1759   -3.7047    0.0153 N   0  0  0  0  0  0  0  0  0  0  0  0
   -5.7234    0.9833    0.5645 N   0  0  0  0  0  0  0  0  0  0  0  0
   -4.7242    1.8821    0.5762 N   0  0  0  0  0  0  0  0  0  0  0  0
    3.0887    4.2293    0.8580 N   0  0  0  0  0  0  0  0  0  0  0  0
    0.6546   -2.3322    0.0743 C   0  0  0  0  0  0  0  0  0  0  0  0
    3.8314    0.3719   -0.9043 C   0  0  1  0  0  0  0  0  0  0  0  0
    1.1002   -3.6449   -0.0333 C   0  0  0  0  0  0  0  0  0  0  0  0
    2.9553   -1.6110    0.0733 C   0  0  0  0  0  0  0  0  0  0  0  0
   -0.7525   -2.4414    0.0992 C   0  0  0  0  0  0  0  0  0  0  0  0
    1.5937   -1.2890    0.1295 C   0  0  0  0  0  0  0  0  0  0  0  0
    3.5709    1.7249   -0.2864 C   0  0  0  0  0  0  0  0  0  0  0  0
    2.4529   -3.9876   -0.0907 C   0  0  0  0  0  0  0  0  0  0  0  0
    3.3756   -2.9380   -0.0350 C   0  0  0  0  0  0  0  0  0  0  0  0
    5.1329    0.3453   -1.6980 C   0  0  0  0  0  0  0  0  0  0  0  0
   -1.6390   -1.3376    0.2018 C   0  0  0  0  0  0  0  0  0  0  0  0
   -3.9302   -0.2516    0.3900 C   0  0  0  0  0  0  0  0  0  0  0  0
   -3.0107   -1.3965    0.2659 C   0  0  0  0  0  0  0  0  0  0  0  0
   -7.0913    1.4329    0.6617 C   0  0  0  0  0  0  0  0  0  0  0  0
   -5.3010   -0.3090    0.4547 C   0  0  0  0  0  0  0  0  0  0  0  0
    2.8251    2.6751   -0.9751 C   0  0  0  0  0  0  0  0  0  0  0  0
    4.0759    2.0254    0.9738 C   0  0  0  0  0  0  0  0  0  0  0  0
   -3.6312    1.1218    0.4693 C   0  0  0  0  0  0  0  0  0  0  0  0
   -7.6109    1.9981   -0.6558 C   0  0  0  0  0  0  0  0  0  0  0  0
    2.6144    3.9011   -0.3648 C   0  0  0  0  0  0  0  0  0  0  0  0
    3.8091    3.2804    1.4972 C   0  0  0  0  0  0  0  0  0  0  0  0
    3.0311    0.1077   -1.6049 H   0  0  0  0  0  0  0  0  0  0  0  0
    1.2689   -0.2574    0.2250 H   0  0  0  0  0  0  0  0  0  0  0  0
    2.7774   -5.0188   -0.1749 H   0  0  0  0  0  0  0  0  0  0  0  0
    4.4381   -3.1666   -0.0776 H   0  0  0  0  0  0  0  0  0  0  0  0
   -0.0996   -5.4171   -0.1361 H   0  0  0  0  0  0  0  0  0  0  0  0
    5.2930   -0.6482   -2.1312 H   0  0  0  0  0  0  0  0  0  0  0  0
    5.1301    1.0812   -2.5083 H   0  0  0  0  0  0  0  0  0  0  0  0
    5.9983    0.5479   -1.0573 H   0  0  0  0  0  0  0  0  0  0  0  0
   -1.1853   -0.3494    0.2423 H   0  0  0  0  0  0  0  0  0  0  0  0
   -3.4917   -2.3724    0.2302 H   0  0  0  0  0  0  0  0  0  0  0  0
   -7.6958    0.5704    0.9652 H   0  0  0  0  0  0  0  0  0  0  0  0
   -7.1443    2.1830    1.4579 H   0  0  0  0  0  0  0  0  0  0  0  0
   -5.9944   -1.1392    0.4311 H   0  0  0  0  0  0  0  0  0  0  0  0
   -2.6672    1.6105    0.4545 H   0  0  0  0  0  0  0  0  0  0  0  0
   -8.6599    2.2927   -0.5530 H   0  0  0  0  0  0  0  0  0  0  0  0
   -7.0275    2.8710   -0.9667 H   0  0  0  0  0  0  0  0  0  0  0  0
    2.0408    4.6859   -0.8489 H   0  0  0  0  0  0  0  0  0  0  0  0
    4.1744    3.5775    2.4757 H   0  0  0  0  0  0  0  0  0  0  0  0
   -7.8565    1.4087   -2.4916 H   0  0  0  0  0  0  0  0  0  0  0  0
  1 25  1  0  0  0  0
  2 26  1  0  0  0  0
  3 11  1  0  0  0  0
  3 13  1  0  0  0  0
  4 28  1  0  0  0  0
  4 49  1  0  0  0  0
  5  6  1  0  0  0  0
  5 12  1  0  0  0  0
  5 35  1  0  0  0  0
  6 14  2  0  0  0  0
  7  8  1  0  0  0  0
  7 23  1  0  0  0  0
  7 24  1  0  0  0  0
  8 27  2  0  0  0  0
  9 29  2  0  0  0  0
  9 30  1  0  0  0  0
 10 12  2  0  0  0  0
 10 14  1  0  0  0  0
 10 15  1  0  0  0  0
 11 16  1  0  0  0  0
 11 19  1  0  0  0  0
 11 31  1  0  0  0  0
 12 17  1  0  0  0  0
 13 15  2  0  0  0  0
 13 18  1  0  0  0  0
 14 20  1  0  0  0  0
 15 32  1  0  0  0  0
 16 25  2  0  0  0  0
 16 26  1  0  0  0  0
 17 18  2  0  0  0  0
 17 33  1  0  0  0  0
 18 34  1  0  0  0  0
 19 36  1  0  0  0  0
 19 37  1  0  0  0  0
 19 38  1  0  0  0  0
 20 22  2  0  0  0  0
 20 39  1  0  0  0  0
 21 22  1  0  0  0  0
 21 24  2  0  0  0  0
 21 27  1  0  0  0  0
 22 40  1  0  0  0  0
 23 28  1  0  0  0  0
 23 41  1  0  0  0  0
 23 42  1  0  0  0  0
 24 43  1  0  0  0  0
 25 29  1  0  0  0  0
 26 30  2  0  0  0  0
 27 44  1  0  0  0  0
 28 45  1  0  0  0  0
 28 46  1  0  0  0  0
 29 47  1  0  0  0  0
 30 48  1  0  0  0  0
M  END
> <PUBCHEM_COMPOUND_CID>
46944259

> <PUBCHEM_CONFORMER_RMSD>
1

> <PUBCHEM_CONFORMER_DIVERSEORDER>
1
20
68
14
26
63
60
56
58
7
38
75
39
65
61
37
13
47
17
23
11
52
18
28
21
80
10
79
44
76
46
51
71
72
50
16
43
15
4
12
25
59
48
29
78
77
67
55
2
70
27
30
22
3
49
53
57
62
73
42
8
35
74
45
33
66
31
69
32
6
41
40
81
36
9
64
5
54
34
24
19

> <PUBCHEM_MMFF94_PARTIAL_CHARGES>
39
1 -0.18
11 0.42
12 -0.15
13 0.08
14 0.24
15 -0.15
16 -0.14
17 -0.15
18 -0.15
2 -0.18
20 -0.1
21 -0.05
22 -0.1
23 0.26
24 -0.3
25 0.18
26 0.18
27 0.14
28 0.28
29 0.16
3 -0.36
30 0.16
32 0.15
33 0.15
34 0.15
35 0.27
39 0.15
4 -0.68
40 0.15
43 0.15
44 0.15
47 0.15
48 0.15
49 0.4
5 0.3
6 -0.71
7 0.31
8 -0.71
9 -0.62

> <PUBCHEM_EFFECTIVE_ROTOR_COUNT>
7

> <PUBCHEM_PHARMACOPHORE_FEATURES>
11
1 3 acceptor
1 4 acceptor
1 4 donor
1 5 donor
1 6 acceptor
1 8 acceptor
1 9 acceptor
5 5 6 10 12 14 rings
5 7 8 21 24 27 rings
6 10 12 13 15 17 18 rings
6 9 16 25 26 29 30 rings

> <PUBCHEM_HEAVY_ATOM_COUNT>
30

> <PUBCHEM_ATOM_DEF_STEREO_COUNT>
1

> <PUBCHEM_ATOM_UDEF_STEREO_COUNT>
0

> <PUBCHEM_BOND_DEF_STEREO_COUNT>
1

> <PUBCHEM_BOND_UDEF_STEREO_COUNT>
0

> <PUBCHEM_ISOTOPIC_ATOM_COUNT>
0

> <PUBCHEM_COMPONENT_COUNT>
1

> <PUBCHEM_CACTVS_TAUTO_COUNT>
3

> <PUBCHEM_CONFORMER_ID>
02CC500300000001

> <PUBCHEM_MMFF94_ENERGY>
75.3435

> <PUBCHEM_FEATURE_SELFOVERLAP>
55.915

> <PUBCHEM_SHAPE_FINGERPRINT>
10439779 11 18412260606540945426
10483366 6 18265075569653962326
10673678 19 18343305864545253275
10675989 125 18343867735813531168
10937287 8 18267306615077805658
11059845 2 17979613948280169448
11273773 38 18261968426565143276
11966995 178 18271539589802318337
12107183 9 18265316478569038608
12422481 6 17530958116564310469
12925494 130 18408888473034917875
1361 2 18410294709625712513
13878862 14 18261660481525373055
13944108 23 18335994060364495916
13965767 371 18116417315115930880
14117953 113 18411136905657338452
14223995 32 18269552922419844320
14556957 393 17416678048208250913
15082195 135 18340757192392202503
15320467 1 18411422804150443817
15322687 12 18413672417561317033
15400415 2 18195529431081730569
16988056 13 18268998596401771238
16992727 255 18044680791764944068
17810953 82 18409732875999641648
18335252 114 18339641131474655022
18681886 176 18126000468847918666
1979834 28 18261114062711507333
20715895 44 18341045298217747696
21049683 118 17749102292935890211
21133410 127 17830176062156923493
21133410 230 18196641906049057618
21860390 5 18200041625027779446
21987440 362 18050296066177945388
22122407 14 18270132193301290025
245318 6 18042703856150114309
4066623 53 17980782458483631390
44555599 121 17984706607157031433
508180 173 18267889284101568506
5109719 28 18335994082324259003
513532 50 18059864926562868622
58902169 19 18058719196976831743
6371009 1 18122887974745988366
653340 110 17691966381382543616
9849439 229 18266180719465787361
9961470 85 18340200894530252409

> <PUBCHEM_SHAPE_MULTIPOLES>
584.48
16.11
6.07
1.43
37.82
2.54
-0.46
-14.75
-0.32
-5.61
0.11
-1.49
-1.42
0.86

> <PUBCHEM_SHAPE_SELFOVERLAP>
1257.935

> <PUBCHEM_SHAPE_VOLUME>
324.5

> <PUBCHEM_COORDINATE_TYPE>
2
5
10

$$$$
54760385
  -OEChem-11282412143D

 62 66  0     0  0  0  0  0  0999 V2000
    5.8098    0.3330   -0.0186 N   0  0  0  0  0  0  0  0  0  0  0  0
    8.2029    1.8685    0.2539 N   0  0  0  0  0  0  0  0  0  0  0  0
   -2.4864    0.3490   -0.0007 N   0  0  0  0  0  0  0  0  0  0  0  0
    1.1235   -2.7316   -0.0448 N   0  0  0  0  0  0  0  0  0  0  0  0
   -4.0733   -1.2166   -0.0129 N   0  0  0  0  0  0  0  0  0  0  0  0
   -0.5089   -1.0615   -0.0217 N   0  0  0  0  0  0  0  0  0  0  0  0
   -4.7148    1.1016    0.0142 N   0  0  0  0  0  0  0  0  0  0  0  0
   -1.1080   -3.4272   -0.0456 N   0  0  0  0  0  0  0  0  0  0  0  0
   -8.2959    0.0569    0.0143 N   0  0  0  0  0  0  0  0  0  0  0  0
    7.1154   -0.3340   -0.0293 C   0  0  0  0  0  0  0  0  0  0  0  0
    5.7719    1.6448    0.6402 C   0  0  0  0  0  0  0  0  0  0  0  0
    8.2034    0.6230   -0.5229 C   0  0  0  0  0  0  0  0  0  0  0  0
    6.9026    2.5375    0.1241 C   0  0  0  0  0  0  0  0  0  0  0  0
    4.6389   -0.4332   -0.0258 C   0  0  0  0  0  0  0  0  0  0  0  0
    9.2806    2.7513   -0.1913 C   0  0  0  0  0  0  0  0  0  0  0  0
    3.4812    0.0678   -0.6211 C   0  0  0  0  0  0  0  0  0  0  0  0
    4.6293   -1.6978    0.5628 C   0  0  0  0  0  0  0  0  0  0  0  0
   -1.8588    1.6512    0.0074 C   0  0  0  0  0  0  0  0  0  0  0  0
   -1.8337   -0.8506   -0.0155 C   0  0  0  0  0  0  0  0  0  0  0  0
    2.3046   -1.9605   -0.0399 C   0  0  0  0  0  0  0  0  0  0  0  0
    2.3141   -0.6959   -0.6282 C   0  0  0  0  0  0  0  0  0  0  0  0
    3.4621   -2.4616    0.5557 C   0  0  0  0  0  0  0  0  0  0  0  0
   -3.8290    0.0772    0.0004 C   0  0  0  0  0  0  0  0  0  0  0  0
   -2.8352   -1.8083   -0.0231 C   0  0  0  0  0  0  0  0  0  0  0  0
   -1.0110    1.8600    1.2646 C   0  0  0  0  0  0  0  0  0  0  0  0
   -1.0263    1.8830   -1.2560 C   0  0  0  0  0  0  0  0  0  0  0  0
   -0.2416   -2.3855   -0.0368 C   0  0  0  0  0  0  0  0  0  0  0  0
   -2.4319   -3.1398   -0.0387 C   0  0  0  0  0  0  0  0  0  0  0  0
   -6.1591    1.1879    0.0196 C   0  0  0  0  0  0  0  0  0  0  0  0
   -6.8030    2.4202    0.0354 C   0  0  0  0  0  0  0  0  0  0  0  0
   -6.9441    0.0460    0.0096 C   0  0  0  0  0  0  0  0  0  0  0  0
   -8.1925    2.4722    0.0408 C   0  0  0  0  0  0  0  0  0  0  0  0
   -8.8865    1.2730    0.0297 C   0  0  0  0  0  0  0  0  0  0  0  0
    7.1014   -1.2047   -0.6968 H   0  0  0  0  0  0  0  0  0  0  0  0
    7.3648   -0.6835    0.9808 H   0  0  0  0  0  0  0  0  0  0  0  0
    5.8659    1.5056    1.7251 H   0  0  0  0  0  0  0  0  0  0  0  0
    4.8220    2.1620    0.4628 H   0  0  0  0  0  0  0  0  0  0  0  0
    8.0510    0.8322   -1.5905 H   0  0  0  0  0  0  0  0  0  0  0  0
    9.1729    0.1195   -0.4247 H   0  0  0  0  0  0  0  0  0  0  0  0
    6.8991    3.4663    0.7074 H   0  0  0  0  0  0  0  0  0  0  0  0
    6.7079    2.8081   -0.9226 H   0  0  0  0  0  0  0  0  0  0  0  0
    9.3028    3.6651    0.4128 H   0  0  0  0  0  0  0  0  0  0  0  0
    9.1762    3.0364   -1.2445 H   0  0  0  0  0  0  0  0  0  0  0  0
   10.2539    2.2654   -0.0605 H   0  0  0  0  0  0  0  0  0  0  0  0
   -2.6145    2.4356    0.0195 H   0  0  0  0  0  0  0  0  0  0  0  0
    3.4762    1.0396   -1.1082 H   0  0  0  0  0  0  0  0  0  0  0  0
    5.5076   -2.1135    1.0482 H   0  0  0  0  0  0  0  0  0  0  0  0
    1.4575   -0.2958   -1.1558 H   0  0  0  0  0  0  0  0  0  0  0  0
    3.4660   -3.4438    1.0215 H   0  0  0  0  0  0  0  0  0  0  0  0
   -0.1393    1.1987    1.2953 H   0  0  0  0  0  0  0  0  0  0  0  0
   -1.6019    1.6776    2.1691 H   0  0  0  0  0  0  0  0  0  0  0  0
   -0.6408    2.8902    1.3090 H   0  0  0  0  0  0  0  0  0  0  0  0
   -0.1582    1.2245   -1.3135 H   0  0  0  0  0  0  0  0  0  0  0  0
   -0.6561    2.9138   -1.2849 H   0  0  0  0  0  0  0  0  0  0  0  0
   -1.6300    1.7199   -2.1558 H   0  0  0  0  0  0  0  0  0  0  0  0
    1.2741   -3.7282    0.0797 H   0  0  0  0  0  0  0  0  0  0  0  0
   -4.3612    2.0528    0.0240 H   0  0  0  0  0  0  0  0  0  0  0  0
   -3.1160   -3.9782   -0.0457 H   0  0  0  0  0  0  0  0  0  0  0  0
   -6.2349    3.3464    0.0439 H   0  0  0  0  0  0  0  0  0  0  0  0
   -6.5246   -0.9528   -0.0028 H   0  0  0  0  0  0  0  0  0  0  0  0
   -8.7158    3.4214    0.0532 H   0  0  0  0  0  0  0  0  0  0  0  0
   -9.9714    1.2592    0.0332 H   0  0  0  0  0  0  0  0  0  0  0  0
  1 10  1  0  0  0  0
  1 11  1  0  0  0  0
  1 14  1  0  0  0  0
  2 12  1  0  0  0  0
  2 13  1  0  0  0  0
  2 15  1  0  0  0  0
  3 18  1  0  0  0  0
  3 19  1  0  0  0  0
  3 23  1  0  0  0  0
  4 20  1  0  0  0  0
  4 27  1  0  0  0  0
  4 56  1  0  0  0  0
  5 23  2  0  0  0  0
  5 24  1  0  0  0  0
  6 19  2  0  0  0  0
  6 27  1  0  0  0  0
  7 23  1  0  0  0  0
  7 29  1  0  0  0  0
  7 57  1  0  0  0  0
  8 27  2  0  0  0  0
  8 28  1  0  0  0  0
  9 31  1  0  0  0  0
  9 33  2  0  0  0  0
 10 12  1  0  0  0  0
 10 34  1  0  0  0  0
 10 35  1  0  0  0  0
 11 13  1  0  0  0  0
 11 36  1  0  0  0  0
 11 37  1  0  0  0  0
 12 38  1  0  0  0  0
 12 39  1  0  0  0  0
 13 40  1  0  0  0  0
 13 41  1  0  0  0  0
 14 16  2  0  0  0  0
 14 17  1  0  0  0  0
 15 42  1  0  0  0  0
 15 43  1  0  0  0  0
 15 44  1  0  0  0  0
 16 21  1  0  0  0  0
 16 46  1  0  0  0  0
 17 22  2  0  0  0  0
 17 47  1  0  0  0  0
 18 25  1  0  0  0  0
 18 26  1  0  0  0  0
 18 45  1  0  0  0  0
 19 24  1  0  0  0  0
 20 21  2  0  0  0  0
 20 22  1  0  0  0  0
 21 48  1  0  0  0  0
 22 49  1  0  0  0  0
 24 28  2  0  0  0  0
 25 50  1  0  0  0  0
 25 51  1  0  0  0  0
 25 52  1  0  0  0  0
 26 53  1  0  0  0  0
 26 54  1  0  0  0  0
 26 55  1  0  0  0  0
 28 58  1  0  0  0  0
 29 30  1  0  0  0  0
 29 31  2  0  0  0  0
 30 32  2  0  0  0  0
 30 59  1  0  0  0  0
 31 60  1  0  0  0  0
 32 33  1  0  0  0  0
 32 61  1  0  0  0  0
 33 62  1  0  0  0  0
M  END
> <PUBCHEM_COMPOUND_CID>
54760385

> <PUBCHEM_CONFORMER_RMSD>
1

> <PUBCHEM_CONFORMER_DIVERSEORDER>
1
39
41
20
24
42
48
50
29
12
32
38
30
25
16
23
45
51
7
37
40
47
28
53
43
35
6
33
36
17
18
49
52
27
5
26
31
8
44
22
2
21
13
14
46
9
54
15
11
34
3
10
19
4

> <PUBCHEM_MMFF94_PARTIAL_CHARGES>
42
1 -0.84
10 0.37
11 0.37
12 0.27
13 0.27
14 0.1
15 0.27
16 -0.15
17 -0.15
18 0.26
19 0.11
2 -0.81
20 0.1
21 -0.15
22 -0.15
23 0.27
24 0.23
27 0.72
28 0.16
29 0.1
3 0.05
30 -0.15
31 0.16
32 -0.15
33 0.16
4 -0.6
46 0.15
47 0.15
48 0.15
49 0.15
5 -0.57
56 0.4
57 0.4
58 0.15
59 0.15
6 -0.57
60 0.15
61 0.15
62 0.15
7 -0.58
8 -0.62
9 -0.62

> <PUBCHEM_EFFECTIVE_ROTOR_COUNT>
7.2

> <PUBCHEM_PHARMACOPHORE_FEATURES>
13
1 1 cation
1 2 cation
1 4 donor
1 7 donor
1 9 acceptor
3 18 25 26 hydrophobe
4 3 5 7 23 cation
4 4 6 8 27 cation
5 3 5 19 23 24 rings
6 1 2 10 11 12 13 rings
6 14 16 17 20 21 22 rings
6 6 8 19 24 27 28 rings
6 9 29 30 31 32 33 rings

> <PUBCHEM_HEAVY_ATOM_COUNT>
33

> <PUBCHEM_ATOM_DEF_STEREO_COUNT>
0

> <PUBCHEM_ATOM_UDEF_STEREO_COUNT>
0

> <PUBCHEM_BOND_DEF_STEREO_COUNT>
0

> <PUBCHEM_BOND_UDEF_STEREO_COUNT>
0

> <PUBCHEM_ISOTOPIC_ATOM_COUNT>
0

> <PUBCHEM_COMPONENT_COUNT>
1

> <PUBCHEM_CACTVS_TAUTO_COUNT>
6

> <PUBCHEM_CONFORMER_ID>
034393C100000001

> <PUBCHEM_MMFF94_ENERGY>
113.6082

> <PUBCHEM_FEATURE_SELFOVERLAP>
66.109

> <PUBCHEM_SHAPE_FINGERPRINT>
10 15 18113337505025073050
10280341 67 18201144568930563008
10411042 1 17690280834537766399
10930396 42 16877657981084249069
10939801 23 18335137579170811884
11135609 187 18411419467482594153
11409948 8 18262248806921006875
11421887 45 18268414893536673416
12133447 93 18267317451301770148
12539765 74 17845659132265457519
12838862 33 18337377297130782277
12925494 130 18340763865995907776
13248334 5 18123471566429493607
13947947 74 18131632292053852232
14117953 113 18408047299242282508
14394314 77 18409730660076514053
14849402 71 18342740707269104241
15152005 290 18411699907013587574
15347591 1 18411138034786708450
1577012 14 18410849962612922686
15840311 113 18333735698410104774
15890870 6 18411982473265146368
16126227 98 18410573993746660493
16758388 162 18261947446187881506
16989713 51 17273966034274254343
16992787 43 18341331120102658393
17899979 19 18411141333495152385
19302320 297 18040999579321672044
19315958 150 18412268311353694958
20105231 36 11311764104444699957
20505436 4 18410568492290343054
21033648 29 18129648834002776058
21298829 104 18409167714122290845
21521721 280 18340208488865985587
23569943 247 8502367837499065485
24771293 8 18410575076838393141
25269216 80 17131537445531949447
306946 40 17240752958000919093
4073 2 18260269672072854074
4169191 19 18341329995021732313
5470011 282 12679169544808255954
5776283 40 18343018917063049760
6327066 14 18413670218633435478
99344 41 18408605855502214109
9962374 69 8862648080741079426

> <PUBCHEM_SHAPE_MULTIPOLES>
634.3
27.97
3.68
0.77
5.08
1.22
0
-26.77
-0.15
1.07
-0.17
0.23
-0.19
-0.21

> <PUBCHEM_SHAPE_SELFOVERLAP>
1375.821

> <PUBCHEM_SHAPE_VOLUME>
336.9

> <PUBCHEM_COORDINATE_TYPE>
2
5
10

$$$$
44467821
  -OEChem-11282412143D

 84 89  0     0  0  0  0  0  0999 V2000
   -4.1506   -1.1379    0.2543 S   0  0  0  0  0  0  0  0  0  0  0  0
    6.5349   -0.1821    0.7516 O   0  0  0  0  0  0  0  0  0  0  0  0
    4.8914    2.0196    1.1989 O   0  0  0  0  0  0  0  0  0  0  0  0
  -10.8973   -2.4367    1.4904 O   0  0  0  0  0  0  0  0  0  0  0  0
   -8.0518    1.3324   -0.3959 O   0  0  0  0  0  0  0  0  0  0  0  0
   11.3510   -0.4684    0.2906 N   0  0  0  0  0  0  0  0  0  0  0  0
   14.1304    0.2472    0.6393 N   0  0  0  0  0  0  0  0  0  0  0  0
    0.4970    0.8933   -1.0807 N   0  0  0  0  0  0  0  0  0  0  0  0
    3.0340   -2.3213   -1.6797 N   0  0  0  0  0  0  0  0  0  0  0  0
    0.9003   -1.2429   -1.9804 N   0  0  0  0  0  0  0  0  0  0  0  0
   -5.0695    1.1130   -0.6065 N   0  0  0  0  0  0  0  0  0  0  0  0
   -6.6801   -0.4694    0.2278 N   0  0  0  0  0  0  0  0  0  0  0  0
   -8.9923   -0.6032    0.5194 N   0  0  0  0  0  0  0  0  0  0  0  0
   12.4072   -1.1037   -0.5068 C   0  0  0  0  0  0  0  0  0  0  0  0
   11.7456    0.8934    0.6709 C   0  0  0  0  0  0  0  0  0  0  0  0
   13.7359   -1.1142    0.2568 C   0  0  0  0  0  0  0  0  0  0  0  0
   13.0736    0.8826    1.4358 C   0  0  0  0  0  0  0  0  0  0  0  0
   10.0849   -0.4574   -0.4395 C   0  0  0  0  0  0  0  0  0  0  0  0
    8.9166   -0.3049    0.5290 C   0  0  0  0  0  0  0  0  0  0  0  0
   15.3956    0.2348    1.3709 C   0  0  0  0  0  0  0  0  0  0  0  0
    7.5806   -0.3120   -0.2016 C   0  0  0  0  0  0  0  0  0  0  0  0
    5.2540   -0.1522    0.2641 C   0  0  0  0  0  0  0  0  0  0  0  0
    4.4368    0.9498    0.4903 C   0  0  0  0  0  0  0  0  0  0  0  0
    4.7730   -1.2437   -0.4651 C   0  0  0  0  0  0  0  0  0  0  0  0
    2.6636   -0.1438   -0.7457 C   0  0  0  0  0  0  0  0  0  0  0  0
    3.4794   -1.2627   -0.9807 C   0  0  0  0  0  0  0  0  0  0  0  0
    3.1399    0.9576   -0.0134 C   0  0  0  0  0  0  0  0  0  0  0  0
    1.3780   -0.1995   -1.2765 C   0  0  0  0  0  0  0  0  0  0  0  0
   -0.9002    0.9761   -0.9735 C   0  0  0  0  0  0  0  0  0  0  0  0
    1.7689   -2.2541   -2.1415 C   0  0  0  0  0  0  0  0  0  0  0  0
   -1.6139   -0.1018   -0.4432 C   0  0  0  0  0  0  0  0  0  0  0  0
   -3.0105    0.0073   -0.3474 C   0  0  0  0  0  0  0  0  0  0  0  0
    4.6871    1.9968    2.6108 C   0  0  0  0  0  0  0  0  0  0  0  0
   -1.5559    2.1273   -1.3956 C   0  0  0  0  0  0  0  0  0  0  0  0
   -3.6919    1.1546   -0.7648 C   0  0  0  0  0  0  0  0  0  0  0  0
   -2.9466    2.2292   -1.2972 C   0  0  0  0  0  0  0  0  0  0  0  0
   -5.4173   -0.0393   -0.0830 C   0  0  0  0  0  0  0  0  0  0  0  0
  -10.3743   -0.3002    0.5314 C   0  0  0  0  0  0  0  0  0  0  0  0
  -12.1670    1.2491    0.0596 C   0  0  0  0  0  0  0  0  0  0  0  0
   -7.9345    0.2037    0.0704 C   0  0  0  0  0  0  0  0  0  0  0  0
  -10.8078    0.9358    0.0523 C   0  0  0  0  0  0  0  0  0  0  0  0
  -11.3001   -1.2233    1.0178 C   0  0  0  0  0  0  0  0  0  0  0  0
  -13.0928    0.3259    0.5459 C   0  0  0  0  0  0  0  0  0  0  0  0
  -12.6595   -0.9102    1.0249 C   0  0  0  0  0  0  0  0  0  0  0  0
  -12.6318    2.5707   -0.4518 C   0  0  0  0  0  0  0  0  0  0  0  0
  -11.9140   -3.3154    1.9673 C   0  0  0  0  0  0  0  0  0  0  0  0
   12.5355   -0.5869   -1.4677 H   0  0  0  0  0  0  0  0  0  0  0  0
   12.1341   -2.1427   -0.7280 H   0  0  0  0  0  0  0  0  0  0  0  0
   10.9967    1.3512    1.3256 H   0  0  0  0  0  0  0  0  0  0  0  0
   11.8397    1.5367   -0.2147 H   0  0  0  0  0  0  0  0  0  0  0  0
   13.6477   -1.7595    1.1416 H   0  0  0  0  0  0  0  0  0  0  0  0
   14.5030   -1.5536   -0.3922 H   0  0  0  0  0  0  0  0  0  0  0  0
   13.3517    1.9200    1.6587 H   0  0  0  0  0  0  0  0  0  0  0  0
   12.9424    0.3659    2.3964 H   0  0  0  0  0  0  0  0  0  0  0  0
   10.0659    0.3244   -1.2098 H   0  0  0  0  0  0  0  0  0  0  0  0
    9.9493   -1.4138   -0.9620 H   0  0  0  0  0  0  0  0  0  0  0  0
    8.9264   -1.1148    1.2703 H   0  0  0  0  0  0  0  0  0  0  0  0
    8.9833    0.6257    1.1040 H   0  0  0  0  0  0  0  0  0  0  0  0
   15.7086    1.2562    1.6144 H   0  0  0  0  0  0  0  0  0  0  0  0
   16.1913   -0.1993    0.7553 H   0  0  0  0  0  0  0  0  0  0  0  0
   15.3303   -0.3374    2.3034 H   0  0  0  0  0  0  0  0  0  0  0  0
    7.4823   -1.2504   -0.7587 H   0  0  0  0  0  0  0  0  0  0  0  0
    7.5344    0.5241   -0.9102 H   0  0  0  0  0  0  0  0  0  0  0  0
    5.4096   -2.1124   -0.6229 H   0  0  0  0  0  0  0  0  0  0  0  0
    2.5188    1.8276    0.1832 H   0  0  0  0  0  0  0  0  0  0  0  0
    0.9414    1.7919   -1.2484 H   0  0  0  0  0  0  0  0  0  0  0  0
    1.4161   -3.1102   -2.7036 H   0  0  0  0  0  0  0  0  0  0  0  0
   -1.1152   -1.0020   -0.0960 H   0  0  0  0  0  0  0  0  0  0  0  0
    5.1081    2.9136    3.0326 H   0  0  0  0  0  0  0  0  0  0  0  0
    5.1968    1.1385    3.0598 H   0  0  0  0  0  0  0  0  0  0  0  0
    3.6179    1.9631    2.8428 H   0  0  0  0  0  0  0  0  0  0  0  0
   -0.9970    2.9639   -1.8087 H   0  0  0  0  0  0  0  0  0  0  0  0
   -3.4488    3.1332   -1.6300 H   0  0  0  0  0  0  0  0  0  0  0  0
   -6.7185   -1.4032    0.6274 H   0  0  0  0  0  0  0  0  0  0  0  0
  -10.1504    1.6996   -0.3367 H   0  0  0  0  0  0  0  0  0  0  0  0
   -8.7455   -1.5204    0.8829 H   0  0  0  0  0  0  0  0  0  0  0  0
  -14.1546    0.5581    0.5585 H   0  0  0  0  0  0  0  0  0  0  0  0
  -13.4362   -1.5748    1.3868 H   0  0  0  0  0  0  0  0  0  0  0  0
  -12.3938    3.3583    0.2701 H   0  0  0  0  0  0  0  0  0  0  0  0
  -12.1502    2.8057   -1.4071 H   0  0  0  0  0  0  0  0  0  0  0  0
  -13.7133    2.5806   -0.6244 H   0  0  0  0  0  0  0  0  0  0  0  0
  -11.4158   -4.2307    2.3037 H   0  0  0  0  0  0  0  0  0  0  0  0
  -12.6045   -3.6065    1.1683 H   0  0  0  0  0  0  0  0  0  0  0  0
  -12.4327   -2.8993    2.8377 H   0  0  0  0  0  0  0  0  0  0  0  0
  1 32  1  0  0  0  0
  1 37  1  0  0  0  0
  2 21  1  0  0  0  0
  2 22  1  0  0  0  0
  3 23  1  0  0  0  0
  3 33  1  0  0  0  0
  4 42  1  0  0  0  0
  4 46  1  0  0  0  0
  5 40  2  0  0  0  0
  6 14  1  0  0  0  0
  6 15  1  0  0  0  0
  6 18  1  0  0  0  0
  7 16  1  0  0  0  0
  7 17  1  0  0  0  0
  7 20  1  0  0  0  0
  8 28  1  0  0  0  0
  8 29  1  0  0  0  0
  8 66  1  0  0  0  0
  9 26  1  0  0  0  0
  9 30  2  0  0  0  0
 10 28  2  0  0  0  0
 10 30  1  0  0  0  0
 11 35  1  0  0  0  0
 11 37  2  0  0  0  0
 12 37  1  0  0  0  0
 12 40  1  0  0  0  0
 12 74  1  0  0  0  0
 13 38  1  0  0  0  0
 13 40  1  0  0  0  0
 13 76  1  0  0  0  0
 14 16  1  0  0  0  0
 14 47  1  0  0  0  0
 14 48  1  0  0  0  0
 15 17  1  0  0  0  0
 15 49  1  0  0  0  0
 15 50  1  0  0  0  0
 16 51  1  0  0  0  0
 16 52  1  0  0  0  0
 17 53  1  0  0  0  0
 17 54  1  0  0  0  0
 18 19  1  0  0  0  0
 18 55  1  0  0  0  0
 18 56  1  0  0  0  0
 19 21  1  0  0  0  0
 19 57  1  0  0  0  0
 19 58  1  0  0  0  0
 20 59  1  0  0  0  0
 20 60  1  0  0  0  0
 20 61  1  0  0  0  0
 21 62  1  0  0  0  0
 21 63  1  0  0  0  0
 22 23  2  0  0  0  0
 22 24  1  0  0  0  0
 23 27  1  0  0  0  0
 24 26  2  0  0  0  0
 24 64  1  0  0  0  0
 25 26  1  0  0  0  0
 25 27  2  0  0  0  0
 25 28  1  0  0  0  0
 27 65  1  0  0  0  0
 29 31  2  0  0  0  0
 29 34  1  0  0  0  0
 30 67  1  0  0  0  0
 31 32  1  0  0  0  0
 31 68  1  0  0  0  0
 32 35  2  0  0  0  0
 33 69  1  0  0  0  0
 33 70  1  0  0  0  0
 33 71  1  0  0  0  0
 34 36  2  0  0  0  0
 34 72  1  0  0  0  0
 35 36  1  0  0  0  0
 36 73  1  0  0  0  0
 38 41  1  0  0  0  0
 38 42  2  0  0  0  0
 39 41  2  0  0  0  0
 39 43  1  0  0  0  0
 39 45  1  0  0  0  0
 41 75  1  0  0  0  0
 42 44  1  0  0  0  0
 43 44  2  0  0  0  0
 43 77  1  0  0  0  0
 44 78  1  0  0  0  0
 45 79  1  0  0  0  0
 45 80  1  0  0  0  0
 45 81  1  0  0  0  0
 46 82  1  0  0  0  0
 46 83  1  0  0  0  0
 46 84  1  0  0  0  0
M  END
> <PUBCHEM_COMPOUND_CID>
44467821

> <PUBCHEM_CONFORMER_RMSD>
1.4

> <PUBCHEM_CONFORMER_DIVERSEORDER>
9
49
42
39
44
32
66
64
53
73
65
28
78
79
43
23
82
36
62
26
76
54
14
48
47
70
52
57
30
75
69
41
46
6
61
24
29
40
56
37
27
74
81
31
60
21
77
63
59
50
33
58
16
71
17
18
67
11
38
80
34
72
22
51
45
2
68
25
35
3
13
4
15
20
10
55
5
1
19
8
12
7

> <PUBCHEM_MMFF94_PARTIAL_CHARGES>
56
1 -0.08
10 -0.62
11 -0.57
12 -0.49
13 -0.55
14 0.27
15 0.27
16 0.27
17 0.27
18 0.27
2 -0.36
20 0.27
21 0.28
22 0.08
23 0.08
24 -0.15
26 0.31
27 -0.15
28 0.41
29 0.1
3 -0.36
30 0.47
31 -0.15
32 0.04
33 0.28
34 -0.15
35 0.23
36 -0.15
37 0.44
38 0.12
39 -0.14
4 -0.36
40 0.69
41 -0.15
42 0.08
43 -0.15
44 -0.15
45 0.14
46 0.28
5 -0.57
6 -0.81
64 0.15
65 0.15
66 0.4
67 0.15
68 0.15
7 -0.81
72 0.15
73 0.15
74 0.37
75 0.15
76 0.37
77 0.15
78 0.15
8 -0.6
9 -0.62

> <PUBCHEM_EFFECTIVE_ROTOR_COUNT>
14.2

> <PUBCHEM_PHARMACOPHORE_FEATURES>
17
1 12 donor
1 13 donor
1 2 acceptor
1 3 acceptor
1 4 acceptor
1 5 acceptor
1 6 cation
1 7 cation
1 8 donor
3 8 10 28 cation
3 9 10 30 cation
5 1 11 32 35 37 rings
6 22 23 24 25 26 27 rings
6 29 31 32 34 35 36 rings
6 38 39 41 42 43 44 rings
6 6 7 14 15 16 17 rings
6 9 10 25 26 28 30 rings

> <PUBCHEM_HEAVY_ATOM_COUNT>
46

> <PUBCHEM_ATOM_DEF_STEREO_COUNT>
0

> <PUBCHEM_ATOM_UDEF_STEREO_COUNT>
0

> <PUBCHEM_BOND_DEF_STEREO_COUNT>
0

> <PUBCHEM_BOND_UDEF_STEREO_COUNT>
0

> <PUBCHEM_ISOTOPIC_ATOM_COUNT>
0

> <PUBCHEM_COMPONENT_COUNT>
1

> <PUBCHEM_CACTVS_TAUTO_COUNT>
15

> <PUBCHEM_CONFORMER_ID>
02A6866D00000009

> <PUBCHEM_MMFF94_ENERGY>
164.2962

> <PUBCHEM_FEATURE_SELFOVERLAP>
86.568

> <PUBCHEM_SHAPE_FINGERPRINT>
11828042 206 10447633700970772898
14251920 1 18187364320689355888
15274700 256 18187364316458413493
15343295 20 18343299267485867197
16728433 110 18411417328773795524
19315958 150 17846785105397825191
20501277 279 18060418014696371291
23399689 5 14117519843742254282
3092352 35 14490480794994254633
3991529 128 15339119035016315802
57828716 8 16081083784693279218
59584819 82 16950571022040983843
9663363 56 17967813838238067341

> <PUBCHEM_SHAPE_MULTIPOLES>
887.18
72.2
2.23
1.58
42.28
0.46
-0.16
8.33
-36.63
-5.75
-0.14
0.9
0.25
6.07

> <PUBCHEM_SHAPE_SELFOVERLAP>
1904.823

> <PUBCHEM_SHAPE_VOLUME>
494.4

> <PUBCHEM_COORDINATE_TYPE>
2
5
10

$$$$
134164132
  -OEChem-11282412143D

 65 69  0     0  0  0  0  0  0999 V2000
   -0.1288    2.3098    1.6075 O   0  0  0  0  0  0  0  0  0  0  0  0
    3.3179   -4.8979   -0.7192 O   0  0  0  0  0  0  0  0  0  0  0  0
    6.6105    3.0601   -0.4550 O   0  0  0  0  0  0  0  0  0  0  0  0
   -3.4959   -0.1449    0.0344 N   0  0  0  0  0  0  0  0  0  0  0  0
   -5.1085    1.5381   -0.5832 N   0  0  0  0  0  0  0  0  0  0  0  0
   -4.1769    3.7874   -0.5955 N   0  0  0  0  0  0  0  0  0  0  0  0
    0.6684    0.9480   -0.1292 N   0  0  0  0  0  0  0  0  0  0  0  0
   -1.9023    4.2436   -0.0491 N   0  0  0  0  0  0  0  0  0  0  0  0
    0.8170   -3.9501    0.2547 N   0  0  0  0  0  0  0  0  0  0  0  0
   -4.3701   -1.3001   -0.0601 C   0  0  0  0  0  0  0  0  0  0  0  0
   -4.0160   -2.4085   -1.0353 C   0  0  0  0  0  0  0  0  0  0  0  0
   -5.1740   -1.5074   -1.3314 C   0  0  0  0  0  0  0  0  0  0  0  0
   -5.0076   -1.6978    1.2423 C   0  0  0  0  0  0  0  0  0  0  0  0
   -3.8764    1.1472   -0.2138 C   0  0  0  0  0  0  0  0  0  0  0  0
   -2.1709   -0.1720    0.3867 C   0  0  0  0  0  0  0  0  0  0  0  0
   -2.7707    1.9651   -0.0162 C   0  0  0  0  0  0  0  0  0  0  0  0
   -1.6953    1.1220    0.3639 C   0  0  0  0  0  0  0  0  0  0  0  0
   -1.4463   -1.3606    0.7163 C   0  0  0  0  0  0  0  0  0  0  0  0
   -2.9590    3.3310   -0.2223 C   0  0  0  0  0  0  0  0  0  0  0  0
   -0.3446    1.5051    0.6764 C   0  0  0  0  0  0  0  0  0  0  0  0
   -5.1627    2.8751   -0.7507 C   0  0  0  0  0  0  0  0  0  0  0  0
   -0.8370   -2.3586    0.9919 C   0  0  0  0  0  0  0  0  0  0  0  0
   -0.0965   -3.5767    1.3326 C   0  0  0  0  0  0  0  0  0  0  0  0
    2.0192   -3.1054    0.2736 C   0  0  0  0  0  0  0  0  0  0  0  0
    1.1950   -5.3663    0.3582 C   0  0  0  0  0  0  0  0  0  0  0  0
    2.0686    1.1563   -0.0745 C   0  0  0  0  0  0  0  0  0  0  0  0
    2.9618   -3.5214   -0.8522 C   0  0  0  0  0  0  0  0  0  0  0  0
    2.1578   -5.7293   -0.7688 C   0  0  0  0  0  0  0  0  0  0  0  0
    2.6092    2.0182    0.8798 C   0  0  0  0  0  0  0  0  0  0  0  0
    2.9066    0.4990   -0.9753 C   0  0  0  0  0  0  0  0  0  0  0  0
    3.9879    2.2227    0.9333 C   0  0  0  0  0  0  0  0  0  0  0  0
    4.2853    0.7037   -0.9217 C   0  0  0  0  0  0  0  0  0  0  0  0
    4.8260    1.5654    0.0327 C   0  0  0  0  0  0  0  0  0  0  0  0
    6.3003    1.7839    0.0908 C   0  0  0  0  0  0  0  0  0  0  0  0
    8.0079    3.3151   -0.4217 C   0  0  0  0  0  0  0  0  0  0  0  0
   -4.2327   -3.4328   -0.7552 H   0  0  0  0  0  0  0  0  0  0  0  0
   -3.1375   -2.3038   -1.6615 H   0  0  0  0  0  0  0  0  0  0  0  0
   -5.0577   -0.8163   -2.1580 H   0  0  0  0  0  0  0  0  0  0  0  0
   -6.1709   -1.9247   -1.2503 H   0  0  0  0  0  0  0  0  0  0  0  0
   -5.6080   -0.8742    1.6436 H   0  0  0  0  0  0  0  0  0  0  0  0
   -4.2470   -1.9613    1.9847 H   0  0  0  0  0  0  0  0  0  0  0  0
   -5.6694   -2.5633    1.1262 H   0  0  0  0  0  0  0  0  0  0  0  0
   -6.1262    3.2730   -1.0503 H   0  0  0  0  0  0  0  0  0  0  0  0
    0.3663    0.3113   -0.8641 H   0  0  0  0  0  0  0  0  0  0  0  0
   -0.9812    3.9349    0.2257 H   0  0  0  0  0  0  0  0  0  0  0  0
   -2.0777    5.2266   -0.2086 H   0  0  0  0  0  0  0  0  0  0  0  0
   -0.8422   -4.3692    1.4794 H   0  0  0  0  0  0  0  0  0  0  0  0
    0.4260   -3.4635    2.2906 H   0  0  0  0  0  0  0  0  0  0  0  0
    2.5404   -3.2038    1.2350 H   0  0  0  0  0  0  0  0  0  0  0  0
    1.7568   -2.0521    0.1379 H   0  0  0  0  0  0  0  0  0  0  0  0
    0.3081   -6.0059    0.2824 H   0  0  0  0  0  0  0  0  0  0  0  0
    1.6744   -5.5610    1.3265 H   0  0  0  0  0  0  0  0  0  0  0  0
    3.8838   -2.9333   -0.8025 H   0  0  0  0  0  0  0  0  0  0  0  0
    2.5135   -3.3519   -1.8388 H   0  0  0  0  0  0  0  0  0  0  0  0
    2.4875   -6.7673   -0.6575 H   0  0  0  0  0  0  0  0  0  0  0  0
    1.6824   -5.6361   -1.7529 H   0  0  0  0  0  0  0  0  0  0  0  0
    2.0258    2.5618    1.6091 H   0  0  0  0  0  0  0  0  0  0  0  0
    2.4983   -0.1748   -1.7242 H   0  0  0  0  0  0  0  0  0  0  0  0
    4.3995    2.8966    1.6802 H   0  0  0  0  0  0  0  0  0  0  0  0
    4.9257    0.1856   -1.6306 H   0  0  0  0  0  0  0  0  0  0  0  0
    6.6405    1.7288    1.1327 H   0  0  0  0  0  0  0  0  0  0  0  0
    6.8307    1.0046   -0.4703 H   0  0  0  0  0  0  0  0  0  0  0  0
    8.1873    4.3055   -0.8485 H   0  0  0  0  0  0  0  0  0  0  0  0
    8.5477    2.5745   -1.0197 H   0  0  0  0  0  0  0  0  0  0  0  0
    8.3749    3.3077    0.6093 H   0  0  0  0  0  0  0  0  0  0  0  0
  1 20  2  0  0  0  0
  2 27  1  0  0  0  0
  2 28  1  0  0  0  0
  3 34  1  0  0  0  0
  3 35  1  0  0  0  0
  4 10  1  0  0  0  0
  4 14  1  0  0  0  0
  4 15  1  0  0  0  0
  5 14  2  0  0  0  0
  5 21  1  0  0  0  0
  6 19  1  0  0  0  0
  6 21  2  0  0  0  0
  7 20  1  0  0  0  0
  7 26  1  0  0  0  0
  7 44  1  0  0  0  0
  8 19  1  0  0  0  0
  8 45  1  0  0  0  0
  8 46  1  0  0  0  0
  9 23  1  0  0  0  0
  9 24  1  0  0  0  0
  9 25  1  0  0  0  0
 10 11  1  0  0  0  0
 10 12  1  0  0  0  0
 10 13  1  0  0  0  0
 11 12  1  0  0  0  0
 11 36  1  0  0  0  0
 11 37  1  0  0  0  0
 12 38  1  0  0  0  0
 12 39  1  0  0  0  0
 13 40  1  0  0  0  0
 13 41  1  0  0  0  0
 13 42  1  0  0  0  0
 14 16  1  0  0  0  0
 15 17  2  0  0  0  0
 15 18  1  0  0  0  0
 16 17  1  0  0  0  0
 16 19  2  0  0  0  0
 17 20  1  0  0  0  0
 18 22  3  0  0  0  0
 21 43  1  0  0  0  0
 22 23  1  0  0  0  0
 23 47  1  0  0  0  0
 23 48  1  0  0  0  0
 24 27  1  0  0  0  0
 24 49  1  0  0  0  0
 24 50  1  0  0  0  0
 25 28  1  0  0  0  0
 25 51  1  0  0  0  0
 25 52  1  0  0  0  0
 26 29  2  0  0  0  0
 26 30  1  0  0  0  0
 27 53  1  0  0  0  0
 27 54  1  0  0  0  0
 28 55  1  0  0  0  0
 28 56  1  0  0  0  0
 29 31  1  0  0  0  0
 29 57  1  0  0  0  0
 30 32  2  0  0  0  0
 30 58  1  0  0  0  0
 31 33  2  0  0  0  0
 31 59  1  0  0  0  0
 32 33  1  0  0  0  0
 32 60  1  0  0  0  0
 33 34  1  0  0  0  0
 34 61  1  0  0  0  0
 34 62  1  0  0  0  0
 35 63  1  0  0  0  0
 35 64  1  0  0  0  0
 35 65  1  0  0  0  0
M  END
> <PUBCHEM_COMPOUND_CID>
134164132

> <PUBCHEM_CONFORMER_RMSD>
1

> <PUBCHEM_CONFORMER_DIVERSEORDER>
1
15
41
50
23
14
17
42
57
53
30
31
38
44
13
24
37
19
4
55
21
33
32
9
10
7
46
5
6
18
8
56
22
20
11
40
26
2
51
47
36
49
39
52
34
27
12
45
16
25
29
28
3
54
35
48
43

> <PUBCHEM_MMFF94_PARTIAL_CHARGES>
46
1 -0.57
10 -0.09
11 -0.2
12 -0.2
13 0.09
14 0.11
15 -0.13
17 -0.09
18 -0.02
19 0.41
2 -0.56
20 0.72
21 0.47
22 -0.2
23 0.47
24 0.27
25 0.27
26 0.12
27 0.28
28 0.28
29 -0.15
3 -0.56
30 -0.15
31 -0.15
32 -0.15
33 -0.14
34 0.42
35 0.28
36 0.1
37 0.1
38 0.1
39 0.1
4 0.29
43 0.15
44 0.37
45 0.4
46 0.4
5 -0.57
57 0.15
58 0.15
59 0.15
6 -0.62
60 0.15
7 -0.55
8 -0.9
9 -0.81

> <PUBCHEM_EFFECTIVE_ROTOR_COUNT>
8.8

> <PUBCHEM_PHARMACOPHORE_FEATURES>
13
1 1 acceptor
1 2 acceptor
1 3 acceptor
1 7 donor
1 8 cation
1 8 donor
1 9 cation
3 4 5 14 cation
3 5 6 21 cation
5 4 14 15 16 17 rings
6 2 9 24 25 27 28 rings
6 26 29 30 31 32 33 rings
6 5 6 14 16 19 21 rings

> <PUBCHEM_HEAVY_ATOM_COUNT>
35

> <PUBCHEM_ATOM_DEF_STEREO_COUNT>
0

> <PUBCHEM_ATOM_UDEF_STEREO_COUNT>
0

> <PUBCHEM_BOND_DEF_STEREO_COUNT>
0

> <PUBCHEM_BOND_UDEF_STEREO_COUNT>
0

> <PUBCHEM_ISOTOPIC_ATOM_COUNT>
0

> <PUBCHEM_COMPONENT_COUNT>
1

> <PUBCHEM_CACTVS_TAUTO_COUNT>
16

> <PUBCHEM_CONFORMER_ID>
07FF2EA400000001

> <PUBCHEM_MMFF94_ENERGY>
86.0752

> <PUBCHEM_FEATURE_SELFOVERLAP>
66.25

> <PUBCHEM_SHAPE_FINGERPRINT>
10483366 6 17908695482073920455
10675989 125 18192997006984515792
1100329 8 17762905368367733929
11049842 53 18042711441246904124
11285246 1 17337004449718379983
11513181 2 18342735178870883919
14659021 117 17765982175728137294
15160630 1 18124619512244509705
15400415 2 18410575106951052200
15439362 3 18048030779328166821
15927050 60 18413105048403468135
17627616 140 18411417302265747358
20028762 73 17694226969269834115
20642791 35 18047188545141832147
21133410 127 18041558019169569404
21133410 52 15101830549795470864
21779490 112 18194139601887940918
22393880 68 18341338790449486606
23559900 14 18052527781927423203
283562 15 18411983594072464273
3298306 158 18413387627096609166
3388396 114 18269254902986003687
4409770 3 18049726510242516378
463206 1 17688321083577166154
469060 322 18190483695523677361
5085150 59 18339347665655882538
5265222 85 18267024041185728664
9981440 41 18334862748529776554

> <PUBCHEM_SHAPE_MULTIPOLES>
672.79
14.08
7.89
1.12
15.74
10.43
-0.09
-14.24
3.57
4.3
0.83
-0.32
0.36
1.08

> <PUBCHEM_SHAPE_SELFOVERLAP>
1449.543

> <PUBCHEM_SHAPE_VOLUME>
368.2

> <PUBCHEM_COORDINATE_TYPE>
2
5
10

$$$$
155190269
  -OEChem-11282412143D

 68 73  0     1  0  0  0  0  0999 V2000
   -7.4748    4.6973    0.0216 F   0  0  0  0  0  0  0  0  0  0  0  0
    3.9177    5.2840   -0.9808 O   0  0  0  0  0  0  0  0  0  0  0  0
    1.8647   -2.5467    0.0272 N   0  0  0  0  0  0  0  0  0  0  0  0
   -0.9577   -1.9824    0.0076 N   0  0  0  0  0  0  0  0  0  0  0  0
    5.5154   -2.1279    0.0675 N   0  0  0  0  0  0  0  0  0  0  0  0
    3.6291   -4.0492    0.0417 N   0  0  0  0  0  0  0  0  0  0  0  0
   -3.0238   -2.1741   -1.0540 N   0  0  0  0  0  0  0  0  0  0  0  0
   -2.8055   -1.0137    1.0468 N   0  0  0  0  0  0  0  0  0  0  0  0
    5.9529   -3.4102    0.0693 N   0  0  0  0  0  0  0  0  0  0  0  0
   -7.0760   -1.5673    1.1464 N   0  0  0  0  0  0  0  0  0  0  0  0
    5.9074    3.6562    0.3440 N   0  0  0  0  0  0  0  0  0  0  0  0
    7.0445    3.3748   -0.3146 N   0  0  0  0  0  0  0  0  0  0  0  0
    1.3352   -1.3390    0.6508 C   0  0  0  0  0  0  0  0  0  0  0  0
    0.9203   -3.4572   -0.6106 C   0  0  0  0  0  0  0  0  0  0  0  0
   -0.1099   -1.5232    1.1075 C   0  0  0  0  0  0  0  0  0  0  0  0
   -0.3366   -2.7316   -1.0843 C   0  0  0  0  0  0  0  0  0  0  0  0
    3.1923   -2.8143    0.0398 C   0  0  0  0  0  0  0  0  0  0  0  0
   -2.3246   -1.7109   -0.0003 C   0  0  0  0  0  0  0  0  0  0  0  0
    4.1913   -1.7726    0.0534 C   0  0  0  0  0  0  0  0  0  0  0  0
   -6.4128   -0.8988   -0.0238 C   0  0  2  0  0  0  0  0  0  0  0  0
   -4.9584   -1.1885   -0.0149 C   0  0  0  0  0  0  0  0  0  0  0  0
    4.1174   -0.3967    0.0552 C   0  0  0  0  0  0  0  0  0  0  0  0
    5.4480    0.0925    0.0712 C   0  0  0  0  0  0  0  0  0  0  0  0
    6.2911   -0.9982    0.0787 C   0  0  0  0  0  0  0  0  0  0  0  0
   -6.7041    0.6407   -0.0114 C   0  0  0  0  0  0  0  0  0  0  0  0
   -4.3434   -1.8940   -1.0292 C   0  0  0  0  0  0  0  0  0  0  0  0
   -4.1317   -0.7692    1.0072 C   0  0  0  0  0  0  0  0  0  0  0  0
   -7.2392   -1.4849   -1.2316 C   0  0  0  0  0  0  0  0  0  0  0  0
    5.8147    1.4902    0.0776 C   0  0  0  0  0  0  0  0  0  0  0  0
    4.9910   -4.2894    0.0562 C   0  0  0  0  0  0  0  0  0  0  0  0
   -6.2324    1.4490   -1.0457 C   0  0  0  0  0  0  0  0  0  0  0  0
   -7.4362    1.2026    1.0344 C   0  0  0  0  0  0  0  0  0  0  0  0
    5.1354    2.5621    0.6034 C   0  0  0  0  0  0  0  0  0  0  0  0
    6.9823    2.0503   -0.4748 C   0  0  0  0  0  0  0  0  0  0  0  0
   -6.4928    2.8192   -1.0342 C   0  0  0  0  0  0  0  0  0  0  0  0
   -7.6968    2.5729    1.0458 C   0  0  0  0  0  0  0  0  0  0  0  0
    5.6123    5.0199    0.7137 C   0  0  0  0  0  0  0  0  0  0  0  0
   -7.2249    3.3812    0.0115 C   0  0  0  0  0  0  0  0  0  0  0  0
    5.1186    5.8471   -0.4683 C   0  0  0  0  0  0  0  0  0  0  0  0
    1.3398   -0.5260   -0.0834 H   0  0  0  0  0  0  0  0  0  0  0  0
    1.9233   -1.0492    1.5289 H   0  0  0  0  0  0  0  0  0  0  0  0
    0.6479   -4.2412    0.1070 H   0  0  0  0  0  0  0  0  0  0  0  0
    1.3838   -3.9491   -1.4744 H   0  0  0  0  0  0  0  0  0  0  0  0
   -0.1574   -2.2569    1.9216 H   0  0  0  0  0  0  0  0  0  0  0  0
   -0.4520   -0.5609    1.5071 H   0  0  0  0  0  0  0  0  0  0  0  0
   -0.0873   -2.0359   -1.8950 H   0  0  0  0  0  0  0  0  0  0  0  0
   -1.0157   -3.4889   -1.4936 H   0  0  0  0  0  0  0  0  0  0  0  0
    3.2398    0.2280    0.0257 H   0  0  0  0  0  0  0  0  0  0  0  0
    7.3709   -1.0697    0.0918 H   0  0  0  0  0  0  0  0  0  0  0  0
   -4.8784   -2.2784   -1.8897 H   0  0  0  0  0  0  0  0  0  0  0  0
   -4.5071   -0.2058    1.8556 H   0  0  0  0  0  0  0  0  0  0  0  0
   -7.1736   -2.5797   -1.2683 H   0  0  0  0  0  0  0  0  0  0  0  0
   -6.8782   -1.1016   -2.1934 H   0  0  0  0  0  0  0  0  0  0  0  0
   -8.3015   -1.2168   -1.1620 H   0  0  0  0  0  0  0  0  0  0  0  0
    5.2801   -5.3533    0.0567 H   0  0  0  0  0  0  0  0  0  0  0  0
   -8.0819   -1.4074    1.1334 H   0  0  0  0  0  0  0  0  0  0  0  0
   -6.7138   -1.1988    2.0239 H   0  0  0  0  0  0  0  0  0  0  0  0
   -5.6596    1.0300   -1.8684 H   0  0  0  0  0  0  0  0  0  0  0  0
   -7.8275    0.6310    1.8684 H   0  0  0  0  0  0  0  0  0  0  0  0
    4.1919    2.6380    1.1276 H   0  0  0  0  0  0  0  0  0  0  0  0
    7.7943    1.5561   -0.9899 H   0  0  0  0  0  0  0  0  0  0  0  0
   -6.1255    3.4488   -1.8392 H   0  0  0  0  0  0  0  0  0  0  0  0
   -8.2662    3.0120    1.8598 H   0  0  0  0  0  0  0  0  0  0  0  0
    6.5224    5.4546    1.1411 H   0  0  0  0  0  0  0  0  0  0  0  0
    4.8477    4.9875    1.4983 H   0  0  0  0  0  0  0  0  0  0  0  0
    5.8604    5.8702   -1.2734 H   0  0  0  0  0  0  0  0  0  0  0  0
    4.9123    6.8733   -0.1487 H   0  0  0  0  0  0  0  0  0  0  0  0
    3.6362    5.8424   -1.7253 H   0  0  0  0  0  0  0  0  0  0  0  0
  1 38  1  0  0  0  0
  2 39  1  0  0  0  0
  2 68  1  0  0  0  0
  3 13  1  0  0  0  0
  3 14  1  0  0  0  0
  3 17  1  0  0  0  0
  4 15  1  0  0  0  0
  4 16  1  0  0  0  0
  4 18  1  0  0  0  0
  5  9  1  0  0  0  0
  5 19  1  0  0  0  0
  5 24  1  0  0  0  0
  6 17  2  0  0  0  0
  6 30  1  0  0  0  0
  7 18  2  0  0  0  0
  7 26  1  0  0  0  0
  8 18  1  0  0  0  0
  8 27  2  0  0  0  0
  9 30  2  0  0  0  0
 10 20  1  0  0  0  0
 10 56  1  0  0  0  0
 10 57  1  0  0  0  0
 11 12  1  0  0  0  0
 11 33  1  0  0  0  0
 11 37  1  0  0  0  0
 12 34  2  0  0  0  0
 13 15  1  0  0  0  0
 13 40  1  0  0  0  0
 13 41  1  0  0  0  0
 14 16  1  0  0  0  0
 14 42  1  0  0  0  0
 14 43  1  0  0  0  0
 15 44  1  0  0  0  0
 15 45  1  0  0  0  0
 16 46  1  0  0  0  0
 16 47  1  0  0  0  0
 17 19  1  0  0  0  0
 19 22  2  0  0  0  0
 20 21  1  0  0  0  0
 20 25  1  0  0  0  0
 20 28  1  0  0  0  0
 21 26  2  0  0  0  0
 21 27  1  0  0  0  0
 22 23  1  0  0  0  0
 22 48  1  0  0  0  0
 23 24  2  0  0  0  0
 23 29  1  0  0  0  0
 24 49  1  0  0  0  0
 25 31  2  0  0  0  0
 25 32  1  0  0  0  0
 26 50  1  0  0  0  0
 27 51  1  0  0  0  0
 28 52  1  0  0  0  0
 28 53  1  0  0  0  0
 28 54  1  0  0  0  0
 29 33  2  0  0  0  0
 29 34  1  0  0  0  0
 30 55  1  0  0  0  0
 31 35  1  0  0  0  0
 31 58  1  0  0  0  0
 32 36  2  0  0  0  0
 32 59  1  0  0  0  0
 33 60  1  0  0  0  0
 34 61  1  0  0  0  0
 35 38  2  0  0  0  0
 35 62  1  0  0  0  0
 36 38  1  0  0  0  0
 36 63  1  0  0  0  0
 37 39  1  0  0  0  0
 37 64  1  0  0  0  0
 37 65  1  0  0  0  0
 39 66  1  0  0  0  0
 39 67  1  0  0  0  0
M  END
> <PUBCHEM_COMPOUND_CID>
155190269

> <PUBCHEM_CONFORMER_RMSD>
1

> <PUBCHEM_CONFORMER_DIVERSEORDER>
1
68
23
99
79
82
64
19
86
52
92
41
90
59
16
30
84
21
101
78
32
51
57
47
18
85
22
69
48
73
61
66
27
76
63
44
89
36
43
67
97
39
93
77
65
60
95
70
35
2
83
42
98
46
45
5
53
80
74
12
20
14
29
33
8
49
91
24
56
9
81
72
50
4
25
54
7
10
58
15
40
62
75
55
6
96
34
28
87
88
37
11
71
31
38
94
17
100
13
26
3

> <PUBCHEM_MMFF94_PARTIAL_CHARGES>
50
1 -0.19
10 -0.99
11 0.31
12 -0.71
13 0.37
14 0.37
15 0.37
16 0.37
17 0.58
18 0.72
19 -0.24
2 -0.68
20 0.56
21 -0.14
22 -0.15
24 -0.3
25 -0.14
26 0.16
27 0.16
3 -0.79
30 0.6
31 -0.15
32 -0.15
33 -0.3
34 0.14
35 -0.15
36 -0.15
37 0.26
38 0.19
39 0.28
4 -0.84
48 0.15
49 0.15
5 0.51
50 0.15
51 0.15
55 0.06
56 0.36
57 0.36
58 0.15
59 0.15
6 -0.66
60 0.15
61 0.15
62 0.15
63 0.15
68 0.4
7 -0.62
8 -0.62
9 -0.65

> <PUBCHEM_EFFECTIVE_ROTOR_COUNT>
8.2

> <PUBCHEM_PHARMACOPHORE_FEATURES>
15
1 10 cation
1 10 donor
1 12 acceptor
1 2 acceptor
1 2 donor
1 8 acceptor
3 3 6 17 cation
3 6 9 30 cation
4 4 7 8 18 cation
5 11 12 29 33 34 rings
5 5 19 22 23 24 rings
6 25 31 32 35 36 38 rings
6 3 4 13 14 15 16 rings
6 5 6 9 17 19 30 rings
6 7 8 18 21 26 27 rings

> <PUBCHEM_HEAVY_ATOM_COUNT>
39

> <PUBCHEM_ATOM_DEF_STEREO_COUNT>
1

> <PUBCHEM_ATOM_UDEF_STEREO_COUNT>
0

> <PUBCHEM_BOND_DEF_STEREO_COUNT>
0

> <PUBCHEM_BOND_UDEF_STEREO_COUNT>
0

> <PUBCHEM_ISOTOPIC_ATOM_COUNT>
0

> <PUBCHEM_COMPONENT_COUNT>
1

> <PUBCHEM_CACTVS_TAUTO_COUNT>
-1

> <PUBCHEM_CONFORMER_ID>
094003FD00000001

> <PUBCHEM_MMFF94_ENERGY>
111.57

> <PUBCHEM_FEATURE_SELFOVERLAP>
76.362

> <PUBCHEM_SHAPE_FINGERPRINT>
10554248 39 17702942509710537631
10556698 54 18269856284671046380
10673678 19 18341056323742142034
10675989 125 18338796823436522146
11386260 185 18271249318653776462
11408170 253 18059298643752405345
11421887 103 17983281918786366616
11456790 92 18040993982799892226
11578821 258 18341615863876853945
11621639 179 18409175424849019612
11621639 307 17913192437539078836
12013929 29 18342175535830815637
12124843 1 17628931307460105244
12522641 24 17677318434407116866
131241 285 18338505349845343781
13944108 23 18412829106072446488
14394314 77 18411985788664011357
14904525 67 18334285445265292773
15131766 46 18270109249053218390
15276724 80 18409727322759779085
15320295 44 18201151182668840230
15347591 1 18411136948391824827
15439362 3 18338234981184022338
15569901 51 18409730651450318641
15773879 134 18338791329530208053
16664035 1 18119527636080934818
16758388 162 18045494214893262643
17686467 74 18187366576201833771
17899979 129 18337955696935901586
19053607 189 18268419308693397912
19302320 297 18336825308540386640
20691028 202 18340203115402909972
21033648 29 17531251673031219690
21585482 111 18408604738468014348
21814621 53 17968387762112986235
23191077 185 18341317973076331743
23522609 53 17703247173363281699
23569914 152 17914648106058529372
23569914 2 17245221389565775005
23569943 247 9727091844380336094
2835820 40 18412543232036900969
397830 11 18115035232720830379
4073 2 18261675973246608587
4144715 1 18260558852537424347
4169191 19 18411135849095370639
4366758 26 18339366386807214116
4408954 64 17318141963473042386
44280116 191 18118132587742621020
444735 82 18410858763005680114
44555599 121 18200317619493890307
44880568 143 18342742871557905767
57366028 249 18335975399707866061
5951187 136 18271254932307388238
6201320 82 18271259226658232737
99344 41 18411417349721150448

> <PUBCHEM_SHAPE_MULTIPOLES>
739.65
28.01
7.82
1.03
24.41
10.2
0.02
25.24
-0.38
-13.22
0.97
1.38
0.08
-0.89

> <PUBCHEM_SHAPE_SELFOVERLAP>
1629.073

> <PUBCHEM_SHAPE_VOLUME>
398.5

> <PUBCHEM_COORDINATE_TYPE>
2
5
10

$$$$
24739943
  -OEChem-11282412143D

 50 53  0     0  0  0  0  0  0999 V2000
   -3.1581    1.5722    1.5119 Cl  0  0  0  0  0  0  0  0  0  0  0  0
   -7.6121   -1.0836    2.9536 F   0  0  0  0  0  0  0  0  0  0  0  0
   -4.3390    0.3488   -0.9678 O   0  0  0  0  0  0  0  0  0  0  0  0
    7.7480   -1.7795    0.7572 O   0  0  0  0  0  0  0  0  0  0  0  0
    1.2052    0.7169   -1.0162 N   0  0  0  0  0  0  0  0  0  0  0  0
    1.6726    2.8900   -0.2454 N   0  0  0  0  0  0  0  0  0  0  0  0
    3.8212    3.4213    0.7074 N   0  0  0  0  0  0  0  0  0  0  0  0
    5.5472   -1.8091   -0.0769 N   0  0  0  0  0  0  0  0  0  0  0  0
    3.3853    1.1939   -0.0668 C   0  0  0  0  0  0  0  0  0  0  0  0
    2.1130    1.6305   -0.4251 C   0  0  0  0  0  0  0  0  0  0  0  0
    4.2291    2.1549    0.5135 C   0  0  0  0  0  0  0  0  0  0  0  0
    3.8224   -0.1275   -0.2645 C   0  0  0  0  0  0  0  0  0  0  0  0
   -0.1957    0.6271   -0.9965 C   0  0  0  0  0  0  0  0  0  0  0  0
    5.1077   -0.4995    0.1167 C   0  0  0  0  0  0  0  0  0  0  0  0
    5.5104    1.7553    0.8852 C   0  0  0  0  0  0  0  0  0  0  0  0
    5.9526    0.4433    0.6920 C   0  0  0  0  0  0  0  0  0  0  0  0
   -2.9794    0.4485   -0.9586 C   0  0  0  0  0  0  0  0  0  0  0  0
   -0.9089    1.0861    0.1108 C   0  0  0  0  0  0  0  0  0  0  0  0
   -0.8741    0.0787   -2.0849 C   0  0  0  0  0  0  0  0  0  0  0  0
   -2.3008    0.9970    0.1297 C   0  0  0  0  0  0  0  0  0  0  0  0
   -2.2660   -0.0106   -2.0660 C   0  0  0  0  0  0  0  0  0  0  0  0
   -4.8910   -0.9600   -1.0909 C   0  0  0  0  0  0  0  0  0  0  0  0
   -6.2275   -0.9940   -0.4097 C   0  0  0  0  0  0  0  0  0  0  0  0
    2.5653    3.7201    0.3175 C   0  0  0  0  0  0  0  0  0  0  0  0
   -6.2999   -1.0234    0.9831 C   0  0  0  0  0  0  0  0  0  0  0  0
   -7.3973   -0.9967   -1.1691 C   0  0  0  0  0  0  0  0  0  0  0  0
   -7.5424   -1.0554    1.6162 C   0  0  0  0  0  0  0  0  0  0  0  0
   -8.6399   -1.0287   -0.5360 C   0  0  0  0  0  0  0  0  0  0  0  0
   -8.7123   -1.0581    0.8566 C   0  0  0  0  0  0  0  0  0  0  0  0
    6.7975   -2.3568    0.2426 C   0  0  0  0  0  0  0  0  0  0  0  0
    6.8755   -3.8009   -0.1235 C   0  0  0  0  0  0  0  0  0  0  0  0
    7.9915   -4.5007    0.1039 C   0  0  0  0  0  0  0  0  0  0  0  0
    3.1731   -0.8801   -0.7052 H   0  0  0  0  0  0  0  0  0  0  0  0
    1.6330    0.1519   -1.7446 H   0  0  0  0  0  0  0  0  0  0  0  0
    6.1902    2.4752    1.3377 H   0  0  0  0  0  0  0  0  0  0  0  0
    6.9636    0.2392    1.0159 H   0  0  0  0  0  0  0  0  0  0  0  0
   -0.3879    1.5020    0.9701 H   0  0  0  0  0  0  0  0  0  0  0  0
   -0.3309   -0.2801   -2.9554 H   0  0  0  0  0  0  0  0  0  0  0  0
   -2.7798   -0.4314   -2.9260 H   0  0  0  0  0  0  0  0  0  0  0  0
   -4.9913   -1.2066   -2.1547 H   0  0  0  0  0  0  0  0  0  0  0  0
   -4.2368   -1.7157   -0.6348 H   0  0  0  0  0  0  0  0  0  0  0  0
    4.8630   -2.4302   -0.5041 H   0  0  0  0  0  0  0  0  0  0  0  0
    2.2426    4.7417    0.4767 H   0  0  0  0  0  0  0  0  0  0  0  0
   -5.3953   -1.0233    1.5850 H   0  0  0  0  0  0  0  0  0  0  0  0
   -7.3561   -0.9723   -2.2548 H   0  0  0  0  0  0  0  0  0  0  0  0
   -9.5509   -1.0304   -1.1272 H   0  0  0  0  0  0  0  0  0  0  0  0
   -9.6794   -1.0829    1.3499 H   0  0  0  0  0  0  0  0  0  0  0  0
    6.0148   -4.2794   -0.5777 H   0  0  0  0  0  0  0  0  0  0  0  0
    8.8747   -4.0631    0.5554 H   0  0  0  0  0  0  0  0  0  0  0  0
    8.0373   -5.5506   -0.1664 H   0  0  0  0  0  0  0  0  0  0  0  0
  1 20  1  0  0  0  0
  2 27  1  0  0  0  0
  3 17  1  0  0  0  0
  3 22  1  0  0  0  0
  4 30  2  0  0  0  0
  5 10  1  0  0  0  0
  5 13  1  0  0  0  0
  5 34  1  0  0  0  0
  6 10  2  0  0  0  0
  6 24  1  0  0  0  0
  7 11  1  0  0  0  0
  7 24  2  0  0  0  0
  8 14  1  0  0  0  0
  8 30  1  0  0  0  0
  8 42  1  0  0  0  0
  9 10  1  0  0  0  0
  9 11  2  0  0  0  0
  9 12  1  0  0  0  0
 11 15  1  0  0  0  0
 12 14  2  0  0  0  0
 12 33  1  0  0  0  0
 13 18  2  0  0  0  0
 13 19  1  0  0  0  0
 14 16  1  0  0  0  0
 15 16  2  0  0  0  0
 15 35  1  0  0  0  0
 16 36  1  0  0  0  0
 17 20  2  0  0  0  0
 17 21  1  0  0  0  0
 18 20  1  0  0  0  0
 18 37  1  0  0  0  0
 19 21  2  0  0  0  0
 19 38  1  0  0  0  0
 21 39  1  0  0  0  0
 22 23  1  0  0  0  0
 22 40  1  0  0  0  0
 22 41  1  0  0  0  0
 23 25  2  0  0  0  0
 23 26  1  0  0  0  0
 24 43  1  0  0  0  0
 25 27  1  0  0  0  0
 25 44  1  0  0  0  0
 26 28  2  0  0  0  0
 26 45  1  0  0  0  0
 27 29  2  0  0  0  0
 28 29  1  0  0  0  0
 28 46  1  0  0  0  0
 29 47  1  0  0  0  0
 30 31  1  0  0  0  0
 31 32  2  0  0  0  0
 31 48  1  0  0  0  0
 32 49  1  0  0  0  0
 32 50  1  0  0  0  0
M  END
> <PUBCHEM_COMPOUND_CID>
24739943

> <PUBCHEM_CONFORMER_RMSD>
1

> <PUBCHEM_CONFORMER_DIVERSEORDER>
1
60
47
2
12
109
78
77
112
126
55
48
85
87
139
11
106
20
28
117
16
50
121
140
10
136
35
120
103
9
29
90
100
128
49
53
68
124
137
38
56
84
67
93
80
25
37
95
125
13
101
82
92
107
134
62
131
108
22
97
102
43
70
46
116
71
41
36
138
129
54
61
30
96
113
122
119
34
132
44
130
123
88
14
23
111
15
33
91
72
65
4
24
31
75
27
135
73
45
63
115
64
26
133
98
114
74
127
57
83
17
51
89
19
18
39
40
104
69
105
59
5
58
8
32
76
81
66
42
86
52
110
7
21
3
118
79
6
99
94

> <PUBCHEM_MMFF94_PARTIAL_CHARGES>
47
1 -0.18
10 0.41
11 0.31
12 -0.15
13 0.1
14 0.12
15 -0.15
16 -0.15
17 0.08
18 -0.15
19 -0.15
2 -0.19
20 0.18
21 -0.15
22 0.42
23 -0.14
24 0.47
25 -0.15
26 -0.15
27 0.19
28 -0.15
29 -0.15
3 -0.36
30 0.62
31 -0.14
32 -0.3
33 0.15
34 0.4
35 0.15
36 0.15
37 0.15
38 0.15
39 0.15
4 -0.57
42 0.37
43 0.15
44 0.15
45 0.15
46 0.15
47 0.15
48 0.15
49 0.15
5 -0.6
50 0.15
6 -0.62
7 -0.62
8 -0.55

> <PUBCHEM_EFFECTIVE_ROTOR_COUNT>
8

> <PUBCHEM_PHARMACOPHORE_FEATURES>
11
1 3 acceptor
1 32 hydrophobe
1 4 acceptor
1 5 donor
1 8 donor
3 5 6 10 cation
3 6 7 24 cation
6 13 17 18 19 20 21 rings
6 23 25 26 27 28 29 rings
6 6 7 9 10 11 24 rings
6 9 11 12 14 15 16 rings

> <PUBCHEM_HEAVY_ATOM_COUNT>
32

> <PUBCHEM_ATOM_DEF_STEREO_COUNT>
0

> <PUBCHEM_ATOM_UDEF_STEREO_COUNT>
0

> <PUBCHEM_BOND_DEF_STEREO_COUNT>
0

> <PUBCHEM_BOND_UDEF_STEREO_COUNT>
0

> <PUBCHEM_ISOTOPIC_ATOM_COUNT>
0

> <PUBCHEM_COMPONENT_COUNT>
1

> <PUBCHEM_CACTVS_TAUTO_COUNT>
6

> <PUBCHEM_CONFORMER_ID>
0179806700000001

> <PUBCHEM_MMFF94_ENERGY>
114.6015

> <PUBCHEM_FEATURE_SELFOVERLAP>
55.993

> <PUBCHEM_SHAPE_FINGERPRINT>
10075450 59 17559403439773808166
10411042 1 18268143172756466428
10533779 47 18335710451268892355
11408170 108 18334576867945735575
11456790 92 17131835386775176787
117089 54 18267026055794630110
11761917 87 18335147470718170619
12133447 93 16660633039310440959
12342043 65 18187639194059233812
13533116 47 18411416258498588372
13668630 136 17458344147972458647
13673619 4 18113897143690597916
13782708 43 17967807254079465805
14294032 229 15985106332036213805
14347424 109 18201719595419110992
14359421 15 17531242791134031778
14598715 104 13614246958340959419
14931854 50 12540987244557052894
15328684 2 17418105312446477251
15419008 91 17024568188269818181
15510800 12 18041002821515312154
16993089 31 18114180800500658367
16994733 274 12103841246415853911
19246450 95 17844529903421180793
19301679 30 18200313204884551708
19315958 150 18262520423940229896
19841028 212 18409725153981064914
20165401 70 18342731936086133782
20505436 4 17557421282908061212
20554085 129 14548740620528022511
20982279 24 18188224103895927651
21130935 74 18267865163454646031
21150785 3 11891323267070728229
21344244 181 18114180835171704954
21781055 127 16128113212374849540
21814621 53 18260256474308200925
23522609 53 17630059388989034705
23569914 2 12965452500735866099
34797466 226 16733261348144089396
397830 11 17534341434439911321
3991529 202 18341339885977838235
4461854 278 17846775196734869510
474113 269 18341606002298814447
5104073 3 17918272035225208752
54039377 194 18339361865123997518
58260988 647 18335702719752480048
6058803 2 17199086061694302141
6327066 14 9006473049846310542
6691757 9 16056298558186571189
9831232 110 17385716993720732599
9962374 69 18340474668831392862

> <PUBCHEM_SHAPE_MULTIPOLES>
621.48
28.15
3.92
1.6
22.46
1.36
0.24
29.17
9.73
-13
0.77
3.62
0.18
0.68

> <PUBCHEM_SHAPE_SELFOVERLAP>
1353.223

> <PUBCHEM_SHAPE_VOLUME>
336.9

> <PUBCHEM_COORDINATE_TYPE>
2
5
10

$$$$
24785538
  -OEChem-11282412143D

 58 63  0     1  0  0  0  0  0999 V2000
   -5.9043   -3.4994    2.5552 F   0  0  0  0  0  0  0  0  0  0  0  0
   -3.8912    1.4360   -0.9896 O   0  0  0  0  0  0  0  0  0  0  0  0
   -0.6391    0.8264   -1.7980 N   0  0  0  0  0  0  0  0  0  0  0  0
    4.6683   -1.0639   -1.0559 N   0  0  0  0  0  0  0  0  0  0  0  0
   -2.8209   -0.6594   -0.9825 N   0  0  0  0  0  0  0  0  0  0  0  0
    1.1163    0.8819   -0.2562 N   0  0  0  0  0  0  0  0  0  0  0  0
   -0.9688    1.9908    0.1523 N   0  0  0  0  0  0  0  0  0  0  0  0
    3.5325   -0.4143   -0.7490 N   0  0  0  0  0  0  0  0  0  0  0  0
    2.9260    0.8790    1.2169 N   0  0  0  0  0  0  0  0  0  0  0  0
   -0.4369    2.3815    1.3320 N   0  0  0  0  0  0  0  0  0  0  0  0
   -5.4819   -1.5329    1.4359 N   0  0  0  0  0  0  0  0  0  0  0  0
    7.0222   -1.5941   -0.1376 C   0  0  0  0  0  0  0  0  0  0  0  0
   -1.9721    1.1005   -2.3506 C   0  0  2  0  0  0  0  0  0  0  0  0
    7.1451   -3.0726   -0.3632 C   0  0  0  0  0  0  0  0  0  0  0  0
    7.4458   -2.4921    0.9875 C   0  0  0  0  0  0  0  0  0  0  0  0
   -2.0339    0.2202   -3.6117 C   0  0  0  0  0  0  0  0  0  0  0  0
   -0.5780    0.0959   -4.0342 C   0  0  0  0  0  0  0  0  0  0  0  0
    0.1589    0.0082   -2.7051 C   0  0  0  0  0  0  0  0  0  0  0  0
    5.6316   -0.9738   -0.0944 C   0  0  0  0  0  0  0  0  0  0  0  0
   -2.1261    2.5840   -2.6791 C   0  0  0  0  0  0  0  0  0  0  0  0
   -3.0157    0.6622   -1.3631 C   0  0  0  0  0  0  0  0  0  0  0  0
   -0.1803    1.2563   -0.6028 C   0  0  0  0  0  0  0  0  0  0  0  0
    5.0885   -0.2119    0.9110 C   0  0  0  0  0  0  0  0  0  0  0  0
    3.7951    0.1042    0.4536 C   0  0  0  0  0  0  0  0  0  0  0  0
    1.6463    1.2515    0.8816 C   0  0  0  0  0  0  0  0  0  0  0  0
    0.8252    2.0570    1.7458 C   0  0  0  0  0  0  0  0  0  0  0  0
   -3.5972   -1.4173   -0.0740 C   0  0  0  0  0  0  0  0  0  0  0  0
    1.0298    2.6203    2.9863 C   0  0  0  0  0  0  0  0  0  0  0  0
   -1.0491    3.1466    2.2903 C   0  0  0  0  0  0  0  0  0  0  0  0
   -0.1595    3.3106    3.3307 C   0  0  0  0  0  0  0  0  0  0  0  0
   -3.2778   -2.7401    0.2117 C   0  0  0  0  0  0  0  0  0  0  0  0
   -4.6992   -0.8651    0.5588 C   0  0  0  0  0  0  0  0  0  0  0  0
   -4.0592   -3.4600    1.1088 C   0  0  0  0  0  0  0  0  0  0  0  0
   -5.1405   -2.8163    1.6885 C   0  0  0  0  0  0  0  0  0  0  0  0
    7.7882   -0.9658   -0.5793 H   0  0  0  0  0  0  0  0  0  0  0  0
    6.2463   -3.6691   -0.4631 H   0  0  0  0  0  0  0  0  0  0  0  0
    7.9800   -3.4241   -0.9574 H   0  0  0  0  0  0  0  0  0  0  0  0
    8.4825   -2.4539    1.2999 H   0  0  0  0  0  0  0  0  0  0  0  0
    6.7485   -2.7044    1.7891 H   0  0  0  0  0  0  0  0  0  0  0  0
   -2.6415    0.6689   -4.4056 H   0  0  0  0  0  0  0  0  0  0  0  0
   -2.4461   -0.7800   -3.4376 H   0  0  0  0  0  0  0  0  0  0  0  0
   -0.2669    0.9934   -4.5818 H   0  0  0  0  0  0  0  0  0  0  0  0
   -0.3938   -0.7724   -4.6730 H   0  0  0  0  0  0  0  0  0  0  0  0
    1.1831    0.3793   -2.8169 H   0  0  0  0  0  0  0  0  0  0  0  0
    0.1915   -1.0258   -2.3443 H   0  0  0  0  0  0  0  0  0  0  0  0
   -3.0732    2.7751   -3.1973 H   0  0  0  0  0  0  0  0  0  0  0  0
   -2.1177    3.2204   -1.7881 H   0  0  0  0  0  0  0  0  0  0  0  0
   -1.3164    2.9341   -3.3297 H   0  0  0  0  0  0  0  0  0  0  0  0
    5.5638    0.0720    1.8395 H   0  0  0  0  0  0  0  0  0  0  0  0
    4.7176   -1.5508   -1.9421 H   0  0  0  0  0  0  0  0  0  0  0  0
   -2.0201   -1.1551   -1.3664 H   0  0  0  0  0  0  0  0  0  0  0  0
    3.2686    1.2054    2.1189 H   0  0  0  0  0  0  0  0  0  0  0  0
    1.9293    2.5469    3.5816 H   0  0  0  0  0  0  0  0  0  0  0  0
   -2.0594    3.5080    2.1541 H   0  0  0  0  0  0  0  0  0  0  0  0
   -0.3483    3.8672    4.2378 H   0  0  0  0  0  0  0  0  0  0  0  0
   -2.4234   -3.2202   -0.2579 H   0  0  0  0  0  0  0  0  0  0  0  0
   -5.0384    0.1505    0.4127 H   0  0  0  0  0  0  0  0  0  0  0  0
   -3.8289   -4.4922    1.3461 H   0  0  0  0  0  0  0  0  0  0  0  0
  1 34  1  0  0  0  0
  2 21  2  0  0  0  0
  3 13  1  0  0  0  0
  3 18  1  0  0  0  0
  3 22  1  0  0  0  0
  4  8  1  0  0  0  0
  4 19  1  0  0  0  0
  4 50  1  0  0  0  0
  5 21  1  0  0  0  0
  5 27  1  0  0  0  0
  5 51  1  0  0  0  0
  6 22  1  0  0  0  0
  6 25  2  0  0  0  0
  7 10  1  0  0  0  0
  7 22  2  0  0  0  0
  8 24  2  0  0  0  0
  9 24  1  0  0  0  0
  9 25  1  0  0  0  0
  9 52  1  0  0  0  0
 10 26  1  0  0  0  0
 10 29  1  0  0  0  0
 11 32  1  0  0  0  0
 11 34  2  0  0  0  0
 12 14  1  0  0  0  0
 12 15  1  0  0  0  0
 12 19  1  0  0  0  0
 12 35  1  0  0  0  0
 13 16  1  0  0  0  0
 13 20  1  0  0  0  0
 13 21  1  0  0  0  0
 14 15  1  0  0  0  0
 14 36  1  0  0  0  0
 14 37  1  0  0  0  0
 15 38  1  0  0  0  0
 15 39  1  0  0  0  0
 16 17  1  0  0  0  0
 16 40  1  0  0  0  0
 16 41  1  0  0  0  0
 17 18  1  0  0  0  0
 17 42  1  0  0  0  0
 17 43  1  0  0  0  0
 18 44  1  0  0  0  0
 18 45  1  0  0  0  0
 19 23  2  0  0  0  0
 20 46  1  0  0  0  0
 20 47  1  0  0  0  0
 20 48  1  0  0  0  0
 23 24  1  0  0  0  0
 23 49  1  0  0  0  0
 25 26  1  0  0  0  0
 26 28  2  0  0  0  0
 27 31  1  0  0  0  0
 27 32  2  0  0  0  0
 28 30  1  0  0  0  0
 28 53  1  0  0  0  0
 29 30  2  0  0  0  0
 29 54  1  0  0  0  0
 30 55  1  0  0  0  0
 31 33  2  0  0  0  0
 31 56  1  0  0  0  0
 32 57  1  0  0  0  0
 33 34  1  0  0  0  0
 33 58  1  0  0  0  0
M  END
> <PUBCHEM_COMPOUND_CID>
24785538

> <PUBCHEM_CONFORMER_RMSD>
1

> <PUBCHEM_CONFORMER_DIVERSEORDER>
1
150
179
193
130
48
149
155
109
120
63
164
68
128
25
111
92
186
81
137
139
185
69
106
118
161
74
35
163
167
101
27
189
144
47
183
177
176
151
154
170
103
49
133
96
31
102
104
64
60
84
166
173
9
2
187
141
17
30
147
50
88
15
95
158
115
73
148
184
124
117
191
172
127
169
181
54
182
156
121
16
72
56
123
90
159
100
67
77
66
190
113
135
140
45
171
53
188
178
80
20
65
143
136
129
142
192
89
76
21
6
114
131
55
153
82
42
126
174
168
36
105
165
160
23
116
59
112
132
71
13
180
83
34
58
40
157
110
138
87
145
5
10
162
194
51
24
134
41
107
44
46
97
85
75
52
29
39
12
98
108
57
14
11
18
86
43
7
122
3
152
94
146
62
125
175
93
37
32
33
78
61
19
28
119
26
8
70
38
91
4
99
22
79

> <PUBCHEM_MMFF94_PARTIAL_CHARGES>
46
1 -0.19
10 0.51
11 -0.62
12 -0.01
13 0.43
14 -0.2
15 -0.2
18 0.37
19 -0.24
2 -0.57
21 0.57
22 0.71
23 -0.15
24 0.37
25 0.58
26 -0.24
27 0.12
28 -0.15
29 -0.3
3 -0.79
30 -0.15
31 -0.15
32 0.16
33 -0.15
34 0.5
35 0.1
36 0.1
37 0.1
38 0.1
39 0.1
4 0.3
49 0.15
5 -0.55
50 0.27
51 0.37
52 0.4
53 0.15
54 0.15
55 0.15
56 0.15
57 0.15
58 0.15
6 -0.66
7 -0.65
8 -0.71
9 -0.53

> <PUBCHEM_EFFECTIVE_ROTOR_COUNT>
8.6

> <PUBCHEM_PHARMACOPHORE_FEATURES>
12
1 11 acceptor
1 2 acceptor
1 4 donor
1 5 donor
1 9 donor
3 8 9 24 cation
4 3 6 7 22 cation
5 10 26 28 29 30 rings
5 3 13 16 17 18 rings
5 4 8 19 23 24 rings
6 11 27 31 32 33 34 rings
6 6 7 10 22 25 26 rings

> <PUBCHEM_HEAVY_ATOM_COUNT>
34

> <PUBCHEM_ATOM_DEF_STEREO_COUNT>
1

> <PUBCHEM_ATOM_UDEF_STEREO_COUNT>
0

> <PUBCHEM_BOND_DEF_STEREO_COUNT>
0

> <PUBCHEM_BOND_UDEF_STEREO_COUNT>
0

> <PUBCHEM_ISOTOPIC_ATOM_COUNT>
0

> <PUBCHEM_COMPONENT_COUNT>
1

> <PUBCHEM_CACTVS_TAUTO_COUNT>
22

> <PUBCHEM_CONFORMER_ID>
017A328200000001

> <PUBCHEM_MMFF94_ENERGY>
89.1189

> <PUBCHEM_FEATURE_SELFOVERLAP>
61.017

> <PUBCHEM_SHAPE_FINGERPRINT>
10369192 42 17613426058467229300
107951 10 18051964828043434549
11049842 53 16453424402823984045
11315621 246 17385718063368218798
11387372 6 17768826273086236702
11607047 141 17461461380203421243
117089 54 17170415149787665611
12633257 1 17558564736240155719
12655364 131 16200153136732751783
13257819 101 9439407938387405145
13383661 66 18261968417812276538
13757389 114 17024014974890608365
13782708 43 18334571386570193602
14279260 333 18127969703501418170
14400156 147 17614595917464241846
14767858 380 14345793850847060392
14844126 61 17202185323565260160
15448158 6 18335416923939586099
16114785 44 15912477962028667945
17974551 9 17697602447932613835
20587220 46 17178022773676966387
20775438 99 15938954472882428906
21796203 349 17703517700557310778
22440779 20 18408881867243614229
2838139 119 9943540586917698098
4409770 3 17272834425649089820
469060 322 17386300800083017622
484985 159 18338800000731483915
513202 73 17345767265691966398
54728670 133 17631177376880160809
57527358 35 18114191868668622181
57527573 199 17557721170330409273
58260988 114 18337965471896495314
6009941 240 18339920398864516425
6201320 77 18339935839187913395
70634741 139 18334296475110125914
999808 66 18201438039703308622

> <PUBCHEM_SHAPE_MULTIPOLES>
641.73
14.73
4.27
3.79
25.66
1.68
-2.75
-19.94
8.52
-1.53
4.74
-5.4
0.14
3.67

> <PUBCHEM_SHAPE_SELFOVERLAP>
1420.332

> <PUBCHEM_SHAPE_VOLUME>
346

> <PUBCHEM_COORDINATE_TYPE>
2
5
10

$$$$
25073775
  -OEChem-11282412143D

 62 65  0     0  0  0  0  0  0999 V2000
    2.8065   -4.1772   -1.4599 F   0  0  0  0  0  0  0  0  0  0  0  0
    4.1845   -2.5610   -1.8995 F   0  0  0  0  0  0  0  0  0  0  0  0
    3.8676   -3.1863    0.1591 F   0  0  0  0  0  0  0  0  0  0  0  0
   -9.2663   -0.4828    0.9912 O   0  0  0  0  0  0  0  0  0  0  0  0
   -3.0429    2.3905   -1.5356 O   0  0  0  0  0  0  0  0  0  0  0  0
    4.9059    0.0231    2.6029 O   0  0  0  0  0  0  0  0  0  0  0  0
   -6.5007   -0.1026    0.6650 N   0  0  0  0  0  0  0  0  0  0  0  0
   -1.0799    0.6470   -0.5260 N   0  0  0  0  0  0  0  0  0  0  0  0
    3.6263   -0.2214   -0.1068 N   0  0  0  0  0  0  0  0  0  0  0  0
   -0.2581   -1.5106   -1.0787 N   0  0  0  0  0  0  0  0  0  0  0  0
    7.0526    0.0837    1.7284 N   0  0  0  0  0  0  0  0  0  0  0  0
   -7.4044    1.0511    0.7327 C   0  0  0  0  0  0  0  0  0  0  0  0
   -7.1297   -1.3668    0.2585 C   0  0  0  0  0  0  0  0  0  0  0  0
   -8.6490    0.6842    1.5334 C   0  0  0  0  0  0  0  0  0  0  0  0
   -8.3884   -1.6046    1.0848 C   0  0  0  0  0  0  0  0  0  0  0  0
   -5.1478    0.0879    0.3659 C   0  0  0  0  0  0  0  0  0  0  0  0
   -4.7556    1.1537   -0.4440 C   0  0  0  0  0  0  0  0  0  0  0  0
   -4.1907   -0.7890    0.8766 C   0  0  0  0  0  0  0  0  0  0  0  0
   -3.4063    1.3430   -0.7430 C   0  0  0  0  0  0  0  0  0  0  0  0
   -2.4492    0.4661   -0.2324 C   0  0  0  0  0  0  0  0  0  0  0  0
   -2.8414   -0.6000    0.5773 C   0  0  0  0  0  0  0  0  0  0  0  0
   -0.0055   -0.2536   -0.6498 C   0  0  0  0  0  0  0  0  0  0  0  0
    2.3273   -0.6643   -0.4356 C   0  0  0  0  0  0  0  0  0  0  0  0
    1.2559    0.2144   -0.3188 C   0  0  0  0  0  0  0  0  0  0  0  0
    2.1075   -1.9657   -0.8734 C   0  0  0  0  0  0  0  0  0  0  0  0
    4.2472    1.0405   -0.1692 C   0  0  0  0  0  0  0  0  0  0  0  0
    0.8078   -2.3361   -1.1797 C   0  0  0  0  0  0  0  0  0  0  0  0
    5.2572    1.3872    0.7282 C   0  0  0  0  0  0  0  0  0  0  0  0
    3.2160   -2.9507   -1.0177 C   0  0  0  0  0  0  0  0  0  0  0  0
   -4.0883    3.2348   -2.0123 C   0  0  0  0  0  0  0  0  0  0  0  0
    3.8397    1.9496   -1.1456 C   0  0  0  0  0  0  0  0  0  0  0  0
    5.8596    2.6428    0.6495 C   0  0  0  0  0  0  0  0  0  0  0  0
    4.4423    3.2051   -1.2245 C   0  0  0  0  0  0  0  0  0  0  0  0
    5.7063    0.4603    1.7593 C   0  0  0  0  0  0  0  0  0  0  0  0
    5.4520    3.5518   -0.3269 C   0  0  0  0  0  0  0  0  0  0  0  0
    7.6421   -0.8440    2.6667 C   0  0  0  0  0  0  0  0  0  0  0  0
   -6.9200    1.9097    1.2125 H   0  0  0  0  0  0  0  0  0  0  0  0
   -7.7035    1.3366   -0.2834 H   0  0  0  0  0  0  0  0  0  0  0  0
   -6.4589   -2.2235    0.3845 H   0  0  0  0  0  0  0  0  0  0  0  0
   -7.3910   -1.2988   -0.8049 H   0  0  0  0  0  0  0  0  0  0  0  0
   -9.3760    1.5013    1.4888 H   0  0  0  0  0  0  0  0  0  0  0  0
   -8.4081    0.5116    2.5893 H   0  0  0  0  0  0  0  0  0  0  0  0
   -8.9228   -2.4820    0.7069 H   0  0  0  0  0  0  0  0  0  0  0  0
   -8.1459   -1.7912    2.1380 H   0  0  0  0  0  0  0  0  0  0  0  0
   -5.5294    1.8010   -0.8381 H   0  0  0  0  0  0  0  0  0  0  0  0
   -4.4750   -1.6158    1.5225 H   0  0  0  0  0  0  0  0  0  0  0  0
   -2.1141   -1.2874    1.0008 H   0  0  0  0  0  0  0  0  0  0  0  0
   -0.8582    1.5837   -0.8535 H   0  0  0  0  0  0  0  0  0  0  0  0
    1.3854    1.2296    0.0436 H   0  0  0  0  0  0  0  0  0  0  0  0
    4.2323   -0.9597    0.2386 H   0  0  0  0  0  0  0  0  0  0  0  0
    0.5648   -3.3353   -1.5266 H   0  0  0  0  0  0  0  0  0  0  0  0
   -3.6179    4.0151   -2.6200 H   0  0  0  0  0  0  0  0  0  0  0  0
   -4.6047    3.7443   -1.1915 H   0  0  0  0  0  0  0  0  0  0  0  0
   -4.7763    2.6947   -2.6717 H   0  0  0  0  0  0  0  0  0  0  0  0
    3.0740    1.7006   -1.8750 H   0  0  0  0  0  0  0  0  0  0  0  0
    6.6447    2.9311    1.3440 H   0  0  0  0  0  0  0  0  0  0  0  0
    4.1291    3.9110   -1.9882 H   0  0  0  0  0  0  0  0  0  0  0  0
    5.9211    4.5294   -0.3886 H   0  0  0  0  0  0  0  0  0  0  0  0
    7.6605    0.4849    1.0202 H   0  0  0  0  0  0  0  0  0  0  0  0
    8.0697   -0.2703    3.4927 H   0  0  0  0  0  0  0  0  0  0  0  0
    8.4330   -1.3975    2.1554 H   0  0  0  0  0  0  0  0  0  0  0  0
    6.8885   -1.5360    3.0504 H   0  0  0  0  0  0  0  0  0  0  0  0
  1 29  1  0  0  0  0
  2 29  1  0  0  0  0
  3 29  1  0  0  0  0
  4 14  1  0  0  0  0
  4 15  1  0  0  0  0
  5 19  1  0  0  0  0
  5 30  1  0  0  0  0
  6 34  2  0  0  0  0
  7 12  1  0  0  0  0
  7 13  1  0  0  0  0
  7 16  1  0  0  0  0
  8 20  1  0  0  0  0
  8 22  1  0  0  0  0
  8 48  1  0  0  0  0
  9 23  1  0  0  0  0
  9 26  1  0  0  0  0
  9 50  1  0  0  0  0
 10 22  2  0  0  0  0
 10 27  1  0  0  0  0
 11 34  1  0  0  0  0
 11 36  1  0  0  0  0
 11 59  1  0  0  0  0
 12 14  1  0  0  0  0
 12 37  1  0  0  0  0
 12 38  1  0  0  0  0
 13 15  1  0  0  0  0
 13 39  1  0  0  0  0
 13 40  1  0  0  0  0
 14 41  1  0  0  0  0
 14 42  1  0  0  0  0
 15 43  1  0  0  0  0
 15 44  1  0  0  0  0
 16 17  2  0  0  0  0
 16 18  1  0  0  0  0
 17 19  1  0  0  0  0
 17 45  1  0  0  0  0
 18 21  2  0  0  0  0
 18 46  1  0  0  0  0
 19 20  2  0  0  0  0
 20 21  1  0  0  0  0
 21 47  1  0  0  0  0
 22 24  1  0  0  0  0
 23 24  2  0  0  0  0
 23 25  1  0  0  0  0
 24 49  1  0  0  0  0
 25 27  2  0  0  0  0
 25 29  1  0  0  0  0
 26 28  1  0  0  0  0
 26 31  2  0  0  0  0
 27 51  1  0  0  0  0
 28 32  2  0  0  0  0
 28 34  1  0  0  0  0
 30 52  1  0  0  0  0
 30 53  1  0  0  0  0
 30 54  1  0  0  0  0
 31 33  1  0  0  0  0
 31 55  1  0  0  0  0
 32 35  1  0  0  0  0
 32 56  1  0  0  0  0
 33 35  2  0  0  0  0
 33 57  1  0  0  0  0
 35 58  1  0  0  0  0
 36 60  1  0  0  0  0
 36 61  1  0  0  0  0
 36 62  1  0  0  0  0
M  END
> <PUBCHEM_COMPOUND_CID>
25073775

> <PUBCHEM_CONFORMER_RMSD>
1

> <PUBCHEM_CONFORMER_DIVERSEORDER>
3
82
30
85
13
62
53
88
44
89
45
92
39
69
68
52
86
26
93
56
48
6
91
64
8
42
50
83
63
67
65
49
58
12
22
36
80
95
9
73
71
79
57
24
61
21
11
66
78
18
14
40
59
33
37
47
2
87
10
55
77
7
51
25
20
60
1
81
43
41
31
32
74
35
76
38
70
16
90
54
46
34
29
72
15
84
19
4
17
27
75
23
28
5
94

> <PUBCHEM_MMFF94_PARTIAL_CHARGES>
48
1 -0.34
10 -0.62
11 -0.73
12 0.37
13 0.37
14 0.28
15 0.28
16 0.1
17 -0.15
18 -0.15
19 0.08
2 -0.34
20 0.1
21 -0.15
22 0.41
23 0.1
24 -0.15
25 -0.14
26 0.1
27 0.16
28 0.09
29 1.16
3 -0.34
30 0.28
31 -0.15
32 -0.15
33 -0.15
34 0.54
35 -0.15
36 0.3
4 -0.56
45 0.15
46 0.15
47 0.15
48 0.4
49 0.15
5 -0.36
50 0.4
51 0.15
55 0.15
56 0.15
57 0.15
58 0.15
59 0.37
6 -0.57
7 -0.84
8 -0.6
9 -0.6

> <PUBCHEM_EFFECTIVE_ROTOR_COUNT>
10.2

> <PUBCHEM_PHARMACOPHORE_FEATURES>
13
1 11 donor
1 4 acceptor
1 5 acceptor
1 6 acceptor
1 7 cation
1 8 donor
1 9 cation
1 9 donor
3 8 10 22 cation
6 10 22 23 24 25 27 rings
6 16 17 18 19 20 21 rings
6 26 28 31 32 33 35 rings
6 4 7 12 13 14 15 rings

> <PUBCHEM_HEAVY_ATOM_COUNT>
36

> <PUBCHEM_ATOM_DEF_STEREO_COUNT>
0

> <PUBCHEM_ATOM_UDEF_STEREO_COUNT>
0

> <PUBCHEM_BOND_DEF_STEREO_COUNT>
0

> <PUBCHEM_BOND_UDEF_STEREO_COUNT>
0

> <PUBCHEM_ISOTOPIC_ATOM_COUNT>
0

> <PUBCHEM_COMPONENT_COUNT>
1

> <PUBCHEM_CACTVS_TAUTO_COUNT>
22

> <PUBCHEM_CONFORMER_ID>
017E986F00000003

> <PUBCHEM_MMFF94_ENERGY>
146.5781

> <PUBCHEM_FEATURE_SELFOVERLAP>
65.972

> <PUBCHEM_SHAPE_FINGERPRINT>
10 15 18334858358988589201
11607047 141 16199605579862867694
12120059 9 17676206918978478075
12422481 6 18188473728127958788
13383668 1 17968082154137116339
13383668 251 18413108346627089335
13811026 1 18114176424704060501
14294032 229 18129657642004968735
14461889 52 18411422842979021611
15064986 96 18409444779180204372
15274700 242 18261660555009990435
15347590 135 18411416198616661721
15392192 104 18340214101976966427
16990366 60 18047754798116183802
18393751 57 18335984246638517743
19315958 150 18341905091342782563
1979834 28 18410293614583164492
21049683 271 18127138473106433110
21130935 74 18341343202251999915
21792934 111 17967534554750063389
21987483 16 17751362996305768363
22149856 69 18271540723441355377
23559900 14 18193557757544897070
23576562 1 14548439364061230705
24771293 8 18335991956458300541
3411729 13 18412830200587480574
3918712 181 17774440611122359608
397830 11 18335983082675747157
4073 2 18337120072362734531
44317340 157 17775290451704824061
5104073 3 18266740182338209857
5109719 28 18267037213497088617
5372103 7 14117220837822228986
6176135 31 18411136956669815074

> <PUBCHEM_SHAPE_MULTIPOLES>
676.53
25.21
3.78
1.89
35.89
0.18
0.63
-3.24
16.87
-5.52
-2.54
-2.56
0.36
1.6

> <PUBCHEM_SHAPE_SELFOVERLAP>
1460.362

> <PUBCHEM_SHAPE_VOLUME>
371.4

> <PUBCHEM_COORDINATE_TYPE>
2
5
10

$$$$
42642645
  -OEChem-11282412143D

 80 85  0     0  0  0  0  0  0999 V2000
    0.1927    0.6723   -0.6877 F   0  0  0  0  0  0  0  0  0  0  0  0
   10.1315   -5.0555    1.3316 F   0  0  0  0  0  0  0  0  0  0  0  0
    4.6239    0.9931   -2.2674 O   0  0  0  0  0  0  0  0  0  0  0  0
    8.4400    1.1034    0.1146 O   0  0  0  0  0  0  0  0  0  0  0  0
  -12.6179   -2.9771    0.1056 O   0  0  0  0  0  0  0  0  0  0  0  0
   -0.3519    1.1461    1.9794 O   0  0  0  0  0  0  0  0  0  0  0  0
   -5.8407    0.0892   -1.1399 O   0  0  0  0  0  0  0  0  0  0  0  0
   -4.0092   -1.7167   -0.0777 O   0  0  0  0  0  0  0  0  0  0  0  0
    4.8485    1.5001    0.0214 N   0  0  0  0  0  0  0  0  0  0  0  0
    7.4651   -0.7572   -0.9395 N   0  0  0  0  0  0  0  0  0  0  0  0
  -10.4664   -1.2583   -0.6142 N   0  0  0  0  0  0  0  0  0  0  0  0
   -3.1601    3.7298    0.3569 N   0  0  0  0  0  0  0  0  0  0  0  0
    6.7681    1.4723   -1.4613 C   0  0  0  0  0  0  0  0  0  0  0  0
    7.2563    2.8682   -1.7149 C   0  0  0  0  0  0  0  0  0  0  0  0
    7.2460    1.8632   -2.8291 C   0  0  0  0  0  0  0  0  0  0  0  0
    5.2921    1.2933   -1.2876 C   0  0  0  0  0  0  0  0  0  0  0  0
    7.6553    0.5878   -0.6697 C   0  0  0  0  0  0  0  0  0  0  0  0
    3.5453    1.4120    0.5115 C   0  0  0  0  0  0  0  0  0  0  0  0
    8.1457   -1.8546   -0.3596 C   0  0  0  0  0  0  0  0  0  0  0  0
    2.4977    1.0799   -0.3476 C   0  0  0  0  0  0  0  0  0  0  0  0
    3.2900    1.6556    1.8610 C   0  0  0  0  0  0  0  0  0  0  0  0
    7.8291   -3.1562   -0.7485 C   0  0  0  0  0  0  0  0  0  0  0  0
    9.1329   -1.6343    0.6009 C   0  0  0  0  0  0  0  0  0  0  0  0
    1.1949    0.9912    0.1430 C   0  0  0  0  0  0  0  0  0  0  0  0
    1.9874    1.5670    2.3516 C   0  0  0  0  0  0  0  0  0  0  0  0
    8.4997   -4.2376   -0.1771 C   0  0  0  0  0  0  0  0  0  0  0  0
    9.8034   -2.7156    1.1726 C   0  0  0  0  0  0  0  0  0  0  0  0
  -10.2625   -2.4185    0.2643 C   0  0  0  0  0  0  0  0  0  0  0  0
  -11.8386   -0.7527   -0.4700 C   0  0  0  0  0  0  0  0  0  0  0  0
   -9.4930   -0.2083   -0.3213 C   0  0  0  0  0  0  0  0  0  0  0  0
    0.9398    1.2348    1.4925 C   0  0  0  0  0  0  0  0  0  0  0  0
  -11.2966   -3.4952   -0.0520 C   0  0  0  0  0  0  0  0  0  0  0  0
  -12.8360   -1.8686   -0.7680 C   0  0  0  0  0  0  0  0  0  0  0  0
    9.4868   -4.0172    0.7836 C   0  0  0  0  0  0  0  0  0  0  0  0
   -8.1296   -0.5741   -0.8992 C   0  0  0  0  0  0  0  0  0  0  0  0
   -7.0877    0.4926   -0.5906 C   0  0  0  0  0  0  0  0  0  0  0  0
   -1.2896    1.9763    1.4377 C   0  0  0  0  0  0  0  0  0  0  0  0
   -2.4287    1.4755    0.7931 C   0  0  0  0  0  0  0  0  0  0  0  0
   -4.7116    0.5295   -0.4994 C   0  0  0  0  0  0  0  0  0  0  0  0
   -3.3505    2.4005    0.2597 C   0  0  0  0  0  0  0  0  0  0  0  0
   -3.7996   -0.3758    0.0287 C   0  0  0  0  0  0  0  0  0  0  0  0
   -4.4819    1.9024   -0.3808 C   0  0  0  0  0  0  0  0  0  0  0  0
   -2.6595    0.0945    0.6739 C   0  0  0  0  0  0  0  0  0  0  0  0
   -1.0906    3.3457    1.5395 C   0  0  0  0  0  0  0  0  0  0  0  0
   -2.0479    4.1723    0.9872 C   0  0  0  0  0  0  0  0  0  0  0  0
   -3.0222   -2.5749    0.4926 C   0  0  0  0  0  0  0  0  0  0  0  0
    8.2240    3.1834   -1.3432 H   0  0  0  0  0  0  0  0  0  0  0  0
    6.5303    3.6725   -1.7595 H   0  0  0  0  0  0  0  0  0  0  0  0
    6.5330    2.0202   -3.6296 H   0  0  0  0  0  0  0  0  0  0  0  0
    8.2033    1.4873   -3.1731 H   0  0  0  0  0  0  0  0  0  0  0  0
    5.5556    1.7502    0.7094 H   0  0  0  0  0  0  0  0  0  0  0  0
    6.7629   -1.0030   -1.6341 H   0  0  0  0  0  0  0  0  0  0  0  0
    2.6170    0.8777   -1.4028 H   0  0  0  0  0  0  0  0  0  0  0  0
    4.0967    1.9154    2.5418 H   0  0  0  0  0  0  0  0  0  0  0  0
    7.0619   -3.3417   -1.4959 H   0  0  0  0  0  0  0  0  0  0  0  0
    9.4322   -0.6568    0.9522 H   0  0  0  0  0  0  0  0  0  0  0  0
    1.7942    1.7578    3.4037 H   0  0  0  0  0  0  0  0  0  0  0  0
  -10.3607   -2.1218    1.3168 H   0  0  0  0  0  0  0  0  0  0  0  0
   -9.2713   -2.8609    0.1292 H   0  0  0  0  0  0  0  0  0  0  0  0
  -12.0171    0.0740   -1.1672 H   0  0  0  0  0  0  0  0  0  0  0  0
  -12.0002   -0.3797    0.5498 H   0  0  0  0  0  0  0  0  0  0  0  0
   -9.8063    0.7314   -0.7951 H   0  0  0  0  0  0  0  0  0  0  0  0
   -9.4248   -0.0096    0.7561 H   0  0  0  0  0  0  0  0  0  0  0  0
    8.2538   -5.2511   -0.4797 H   0  0  0  0  0  0  0  0  0  0  0  0
   10.5724   -2.5459    1.9206 H   0  0  0  0  0  0  0  0  0  0  0  0
  -11.1755   -3.8869   -1.0694 H   0  0  0  0  0  0  0  0  0  0  0  0
  -11.1846   -4.3349    0.6414 H   0  0  0  0  0  0  0  0  0  0  0  0
  -13.8570   -1.5101   -0.6019 H   0  0  0  0  0  0  0  0  0  0  0  0
  -12.7679   -2.2047   -1.8098 H   0  0  0  0  0  0  0  0  0  0  0  0
   -7.7585   -1.5257   -0.5031 H   0  0  0  0  0  0  0  0  0  0  0  0
   -8.1982   -0.7106   -1.9864 H   0  0  0  0  0  0  0  0  0  0  0  0
   -7.0102    0.6258    0.4963 H   0  0  0  0  0  0  0  0  0  0  0  0
   -7.3811    1.4480   -1.0405 H   0  0  0  0  0  0  0  0  0  0  0  0
   -5.1980    2.6040   -0.8058 H   0  0  0  0  0  0  0  0  0  0  0  0
   -1.9190   -0.5725    1.1027 H   0  0  0  0  0  0  0  0  0  0  0  0
   -0.2283    3.7705    2.0410 H   0  0  0  0  0  0  0  0  0  0  0  0
   -1.9475    5.2515    1.0387 H   0  0  0  0  0  0  0  0  0  0  0  0
   -3.3502   -3.6045    0.3149 H   0  0  0  0  0  0  0  0  0  0  0  0
   -2.9544   -2.4469    1.5784 H   0  0  0  0  0  0  0  0  0  0  0  0
   -2.0524   -2.4611   -0.0038 H   0  0  0  0  0  0  0  0  0  0  0  0
  1 24  1  0  0  0  0
  2 34  1  0  0  0  0
  3 16  2  0  0  0  0
  4 17  2  0  0  0  0
  5 32  1  0  0  0  0
  5 33  1  0  0  0  0
  6 31  1  0  0  0  0
  6 37  1  0  0  0  0
  7 36  1  0  0  0  0
  7 39  1  0  0  0  0
  8 41  1  0  0  0  0
  8 46  1  0  0  0  0
  9 16  1  0  0  0  0
  9 18  1  0  0  0  0
  9 51  1  0  0  0  0
 10 17  1  0  0  0  0
 10 19  1  0  0  0  0
 10 52  1  0  0  0  0
 11 28  1  0  0  0  0
 11 29  1  0  0  0  0
 11 30  1  0  0  0  0
 12 40  2  0  0  0  0
 12 45  1  0  0  0  0
 13 14  1  0  0  0  0
 13 15  1  0  0  0  0
 13 16  1  0  0  0  0
 13 17  1  0  0  0  0
 14 15  1  0  0  0  0
 14 47  1  0  0  0  0
 14 48  1  0  0  0  0
 15 49  1  0  0  0  0
 15 50  1  0  0  0  0
 18 20  2  0  0  0  0
 18 21  1  0  0  0  0
 19 22  2  0  0  0  0
 19 23  1  0  0  0  0
 20 24  1  0  0  0  0
 20 53  1  0  0  0  0
 21 25  2  0  0  0  0
 21 54  1  0  0  0  0
 22 26  1  0  0  0  0
 22 55  1  0  0  0  0
 23 27  2  0  0  0  0
 23 56  1  0  0  0  0
 24 31  2  0  0  0  0
 25 31  1  0  0  0  0
 25 57  1  0  0  0  0
 26 34  2  0  0  0  0
 26 64  1  0  0  0  0
 27 34  1  0  0  0  0
 27 65  1  0  0  0  0
 28 32  1  0  0  0  0
 28 58  1  0  0  0  0
 28 59  1  0  0  0  0
 29 33  1  0  0  0  0
 29 60  1  0  0  0  0
 29 61  1  0  0  0  0
 30 35  1  0  0  0  0
 30 62  1  0  0  0  0
 30 63  1  0  0  0  0
 32 66  1  0  0  0  0
 32 67  1  0  0  0  0
 33 68  1  0  0  0  0
 33 69  1  0  0  0  0
 35 36  1  0  0  0  0
 35 70  1  0  0  0  0
 35 71  1  0  0  0  0
 36 72  1  0  0  0  0
 36 73  1  0  0  0  0
 37 38  2  0  0  0  0
 37 44  1  0  0  0  0
 38 40  1  0  0  0  0
 38 43  1  0  0  0  0
 39 41  1  0  0  0  0
 39 42  2  0  0  0  0
 40 42  1  0  0  0  0
 41 43  2  0  0  0  0
 42 74  1  0  0  0  0
 43 75  1  0  0  0  0
 44 45  2  0  0  0  0
 44 76  1  0  0  0  0
 45 77  1  0  0  0  0
 46 78  1  0  0  0  0
 46 79  1  0  0  0  0
 46 80  1  0  0  0  0
M  END
> <PUBCHEM_COMPOUND_CID>
42642645

> <PUBCHEM_CONFORMER_RMSD>
1.4

> <PUBCHEM_CONFORMER_DIVERSEORDER>
21
149
144
141
147
46
55
134
160
156
168
61
121
146
87
150
137
161
118
114
47
138
37
8
132
90
38
136
107
93
104
145
164
142
115
170
151
91
42
98
79
135
3
57
101
163
89
39
17
1
112
165
148
116
82
96
139
110
54
129
80
126
154
111
81
51
29
65
95
69
24
133
120
167
76
70
84
124
131
140
72
6
58
102
10
86
125
20
35
113
71
50
59
158
45
85
43
162
143
108
62
48
152
92
16
63
30
153
99
83
166
97
60
66
122
22
49
13
103
74
32
119
68
34
14
23
94
25
100
109
44
106
88
64
155
123
31
78
105
18
73
5
157
67
9
52
77
75
28
117
127
40
159
41
169
53
7
130
15
128
19
11
2
12
26
33
36
27
4
56

> <PUBCHEM_MMFF94_PARTIAL_CHARGES>
60
1 -0.19
10 -0.55
11 -0.81
12 -0.62
14 -0.2
15 -0.2
16 0.63
17 0.63
18 0.12
19 0.12
2 -0.19
20 -0.15
21 -0.15
22 -0.15
23 -0.15
24 0.19
25 -0.15
26 -0.15
27 -0.15
28 0.27
29 0.27
3 -0.57
30 0.27
31 0.08
32 0.28
33 0.28
34 0.19
36 0.28
37 0.08
39 0.08
4 -0.57
40 0.31
41 0.08
42 -0.15
43 -0.15
44 -0.15
45 0.16
46 0.28
47 0.1
48 0.1
49 0.1
5 -0.56
50 0.1
51 0.37
52 0.37
53 0.15
54 0.15
55 0.15
56 0.15
57 0.15
6 -0.17
64 0.15
65 0.15
7 -0.36
74 0.15
75 0.15
76 0.15
77 0.15
8 -0.36
9 -0.55

> <PUBCHEM_EFFECTIVE_ROTOR_COUNT>
15.8

> <PUBCHEM_PHARMACOPHORE_FEATURES>
15
1 10 donor
1 11 cation
1 12 acceptor
1 3 acceptor
1 4 acceptor
1 5 acceptor
1 6 acceptor
1 7 acceptor
1 8 acceptor
1 9 donor
6 12 37 38 40 44 45 rings
6 18 20 21 24 25 31 rings
6 19 22 23 26 27 34 rings
6 38 39 40 41 42 43 rings
6 5 11 28 29 32 33 rings

> <PUBCHEM_HEAVY_ATOM_COUNT>
46

> <PUBCHEM_ATOM_DEF_STEREO_COUNT>
0

> <PUBCHEM_ATOM_UDEF_STEREO_COUNT>
0

> <PUBCHEM_BOND_DEF_STEREO_COUNT>
0

> <PUBCHEM_BOND_UDEF_STEREO_COUNT>
0

> <PUBCHEM_ISOTOPIC_ATOM_COUNT>
0

> <PUBCHEM_COMPONENT_COUNT>
1

> <PUBCHEM_CACTVS_TAUTO_COUNT>
4

> <PUBCHEM_CONFORMER_ID>
028AACD500000015

> <PUBCHEM_MMFF94_ENERGY>
150.0233

> <PUBCHEM_FEATURE_SELFOVERLAP>
76.163

> <PUBCHEM_SHAPE_FINGERPRINT>
10168742 298 18335139808659843375
10209105 3 18413670227861706059
13782708 43 17917716795149721944
19315958 150 17130421496938269825
20105231 36 18342737464810940263
2026 5 18200590294420584950
20737093 207 18189324685798462914
21895431 317 18337105645504562930
23569917 315 18129386995633244118
3525247 94 18334574616680388727
5109719 28 13613939082885705882
6081469 158 18131353038071111637
6204607 403 10951175963122569722

> <PUBCHEM_SHAPE_MULTIPOLES>
876.97
47.93
5.28
1.74
77.55
3.94
-0.17
64.95
-12.04
-7.76
1.54
-3.63
-1.18
-5.03

> <PUBCHEM_SHAPE_SELFOVERLAP>
1909.225

> <PUBCHEM_SHAPE_VOLUME>
478

> <PUBCHEM_COORDINATE_TYPE>
2
5
10

$$$$
46911863
  -OEChem-11282412143D

 41 45  0     0  0  0  0  0  0999 V2000
    1.5946   -2.6407    2.2274 F   0  0  0  0  0  0  0  0  0  0  0  0
    0.2081   -0.9990    2.2782 F   0  0  0  0  0  0  0  0  0  0  0  0
   -0.9963   -1.8526   -0.1415 N   0  0  0  0  0  0  0  0  0  0  0  0
   -1.5574   -0.6667    0.2024 N   0  0  0  0  0  0  0  0  0  0  0  0
    0.3907   -3.5477   -0.2236 N   0  0  0  0  0  0  0  0  0  0  0  0
   -0.6384   -3.7903   -1.1109 N   0  0  0  0  0  0  0  0  0  0  0  0
   -3.9094    2.8229    0.6718 N   0  0  0  0  0  0  0  0  0  0  0  0
    4.9461    1.6449   -0.9406 N   0  0  0  0  0  0  0  0  0  0  0  0
   -4.9082    2.5614   -0.1885 N   0  0  0  0  0  0  0  0  0  0  0  0
    1.0215   -1.6921    1.4014 C   0  0  0  0  0  0  0  0  0  0  0  0
    0.1600   -2.3869    0.3470 C   0  0  0  0  0  0  0  0  0  0  0  0
    2.0487   -0.8054    0.7840 C   0  0  0  0  0  0  0  0  0  0  0  0
   -1.4657   -2.7681   -1.0546 C   0  0  0  0  0  0  0  0  0  0  0  0
    1.7553    0.5300    0.5231 C   0  0  0  0  0  0  0  0  0  0  0  0
   -2.6642   -0.4043   -0.4332 C   0  0  0  0  0  0  0  0  0  0  0  0
    2.7208    1.3697   -0.0578 C   0  0  0  0  0  0  0  0  0  0  0  0
    3.3049   -1.3064    0.4659 C   0  0  0  0  0  0  0  0  0  0  0  0
    3.9983    0.8678   -0.3832 C   0  0  0  0  0  0  0  0  0  0  0  0
   -3.3728    0.8708   -0.1479 C   0  0  0  0  0  0  0  0  0  0  0  0
   -2.6733   -2.4654   -1.7139 C   0  0  0  0  0  0  0  0  0  0  0  0
   -3.3012   -1.3150   -1.4387 C   0  0  0  0  0  0  0  0  0  0  0  0
    4.2645   -0.4714   -0.1116 C   0  0  0  0  0  0  0  0  0  0  0  0
   -2.9639    1.8417    0.7335 C   0  0  0  0  0  0  0  0  0  0  0  0
    2.4523    2.7177   -0.3310 C   0  0  0  0  0  0  0  0  0  0  0  0
   -4.5749    1.3675   -0.6862 C   0  0  0  0  0  0  0  0  0  0  0  0
    3.4270    3.5210   -0.9053 C   0  0  0  0  0  0  0  0  0  0  0  0
    4.6467    2.9407   -1.1882 C   0  0  0  0  0  0  0  0  0  0  0  0
   -3.9140    4.0560    1.4220 C   0  0  0  0  0  0  0  0  0  0  0  0
    0.7747    0.9299    0.7729 H   0  0  0  0  0  0  0  0  0  0  0  0
    3.5554   -2.3464    0.6580 H   0  0  0  0  0  0  0  0  0  0  0  0
   -3.0828   -3.1644   -2.4342 H   0  0  0  0  0  0  0  0  0  0  0  0
   -4.2298   -1.0561   -1.9282 H   0  0  0  0  0  0  0  0  0  0  0  0
    5.2409   -0.8882   -0.3519 H   0  0  0  0  0  0  0  0  0  0  0  0
   -2.1019    1.9174    1.3828 H   0  0  0  0  0  0  0  0  0  0  0  0
    1.4815    3.1492   -0.0978 H   0  0  0  0  0  0  0  0  0  0  0  0
   -5.2338    0.9250   -1.4191 H   0  0  0  0  0  0  0  0  0  0  0  0
    3.2364    4.5652   -1.1233 H   0  0  0  0  0  0  0  0  0  0  0  0
    5.4469    3.5196   -1.6376 H   0  0  0  0  0  0  0  0  0  0  0  0
   -3.0308    4.0962    2.0642 H   0  0  0  0  0  0  0  0  0  0  0  0
   -4.8206    4.0841    2.0316 H   0  0  0  0  0  0  0  0  0  0  0  0
   -3.8996    4.8889    0.7146 H   0  0  0  0  0  0  0  0  0  0  0  0
  1 10  1  0  0  0  0
  2 10  1  0  0  0  0
  3  4  1  0  0  0  0
  3 11  1  0  0  0  0
  3 13  1  0  0  0  0
  4 15  2  0  0  0  0
  5  6  1  0  0  0  0
  5 11  2  0  0  0  0
  6 13  2  0  0  0  0
  7  9  1  0  0  0  0
  7 23  1  0  0  0  0
  7 28  1  0  0  0  0
  8 18  1  0  0  0  0
  8 27  2  0  0  0  0
  9 25  2  0  0  0  0
 10 11  1  0  0  0  0
 10 12  1  0  0  0  0
 12 14  2  0  0  0  0
 12 17  1  0  0  0  0
 13 20  1  0  0  0  0
 14 16  1  0  0  0  0
 14 29  1  0  0  0  0
 15 19  1  0  0  0  0
 15 21  1  0  0  0  0
 16 18  2  0  0  0  0
 16 24  1  0  0  0  0
 17 22  2  0  0  0  0
 17 30  1  0  0  0  0
 18 22  1  0  0  0  0
 19 23  2  0  0  0  0
 19 25  1  0  0  0  0
 20 21  2  0  0  0  0
 20 31  1  0  0  0  0
 21 32  1  0  0  0  0
 22 33  1  0  0  0  0
 23 34  1  0  0  0  0
 24 26  2  0  0  0  0
 24 35  1  0  0  0  0
 25 36  1  0  0  0  0
 26 27  1  0  0  0  0
 26 37  1  0  0  0  0
 27 38  1  0  0  0  0
 28 39  1  0  0  0  0
 28 40  1  0  0  0  0
 28 41  1  0  0  0  0
M  END
> <PUBCHEM_COMPOUND_CID>
46911863

> <PUBCHEM_CONFORMER_RMSD>
0.8

> <PUBCHEM_CONFORMER_DIVERSEORDER>
1
73
39
17
63
42
76
69
57
74
62
59
47
53
55
13
66
34
67
43
60
56
33
48
46
35
58
61
72
36
49
77
7
52
54
10
45
18
44
70
27
8
64
14
38
75
40
68
22
15
51
37
25
16
29
9
78
30
4
3
50
71
41
6
21
11
12
65
2
20
5
31
32
19
23
24
28
26

> <PUBCHEM_MMFF94_PARTIAL_CHARGES>
37
1 -0.34
10 1
11 0.01
12 -0.14
13 0.14
14 -0.15
15 0.52
17 -0.15
18 0.31
19 -0.09
2 -0.34
20 -0.11
21 -0.14
22 -0.15
23 -0.3
24 -0.15
25 0.14
26 -0.15
27 0.16
28 0.26
29 0.15
3 0.51
30 0.15
31 0.15
32 0.15
33 0.15
34 0.15
35 0.15
36 0.15
37 0.15
38 0.15
4 -0.65
5 -0.34
6 -0.34
7 0.31
8 -0.62
9 -0.71

> <PUBCHEM_EFFECTIVE_ROTOR_COUNT>
3

> <PUBCHEM_PHARMACOPHORE_FEATURES>
10
1 4 acceptor
1 8 acceptor
1 9 acceptor
3 3 5 11 cation
3 3 6 13 cation
5 3 5 6 11 13 rings
5 7 9 19 23 25 rings
6 12 14 16 17 18 22 rings
6 3 4 13 15 20 21 rings
6 8 16 18 24 26 27 rings

> <PUBCHEM_HEAVY_ATOM_COUNT>
28

> <PUBCHEM_ATOM_DEF_STEREO_COUNT>
0

> <PUBCHEM_ATOM_UDEF_STEREO_COUNT>
0

> <PUBCHEM_BOND_DEF_STEREO_COUNT>
0

> <PUBCHEM_BOND_UDEF_STEREO_COUNT>
0

> <PUBCHEM_ISOTOPIC_ATOM_COUNT>
0

> <PUBCHEM_COMPONENT_COUNT>
1

> <PUBCHEM_CACTVS_TAUTO_COUNT>
1

> <PUBCHEM_CONFORMER_ID>
02CBD17700000001

> <PUBCHEM_MMFF94_ENERGY>
57.6314

> <PUBCHEM_FEATURE_SELFOVERLAP>
53.395

> <PUBCHEM_SHAPE_FINGERPRINT>
10291535 26 17685496850901844528
10483366 6 17838074615057693886
10871710 139 18338515369528589581
10906281 52 18187088369642137258
10937287 8 18411138039043622189
11273773 38 18195531393707276133
11374522 363 18044086861158336756
12173636 292 18271230733612497919
12422481 6 17402585486508386282
12788726 201 18198613522858629335
13583140 156 17678454157098609339
13590594 115 17683795519892927450
13944108 23 17903078824127750292
13965767 371 17693061116764120115
14123250 116 18264486367709972477
14251764 75 18339373989062767449
14289585 56 17688049517332535836
1454969 45 18342176709538405839
14790565 3 18339648845236171620
15163728 17 18270976660479357759
16991981 162 18127983107439623901
16994733 274 15650384236507364095
17921350 177 17248910044696973285
20739085 24 17835236744769092706
21864079 5 18408602586572678538
22393880 68 18127980909007361532
22907989 373 18198323226124555551
245318 6 18189070749582530221
312425 83 18200611301242332068
38570 142 18187380813295272532
397830 11 17903945279290361673
437795 83 17327478311599834508
4408954 64 15588796892051984561
469060 322 14780665113632703251
474 4 18259981557017960113
5048184 11 18409448115404935925
5081480 168 17269227988854493335
5171179 24 16460797156891570363
5895379 119 18340756148530007280
633830 44 18187081758870024722
7288768 16 17531529913596317608
9980921 221 17686929493501014236
9981440 41 17394997095867121834

> <PUBCHEM_SHAPE_MULTIPOLES>
526.81
9.85
5.35
1.51
1.22
1.11
0.43
10.66
-2.64
-2.46
-0.16
-0.17
-0.54
-3.72

> <PUBCHEM_SHAPE_SELFOVERLAP>
1191.448

> <PUBCHEM_SHAPE_VOLUME>
278.9

> <PUBCHEM_COORDINATE_TYPE>
2
5
10

$$$$
50922691
  -OEChem-11282412143D

 60 65  0     0  0  0  0  0  0999 V2000
    3.5112    1.8406   -1.6428 O   0  0  0  0  0  0  0  0  0  0  0  0
    4.3977    0.8886    0.2970 N   0  0  0  0  0  0  0  0  0  0  0  0
    0.9046    0.9522   -0.4061 N   0  0  0  0  0  0  0  0  0  0  0  0
   -1.3944    0.1224   -0.1599 N   0  0  0  0  0  0  0  0  0  0  0  0
    0.2643   -3.6249   -0.3351 N   0  0  0  0  0  0  0  0  0  0  0  0
   -1.9665   -3.6007   -0.0971 N   0  0  0  0  0  0  0  0  0  0  0  0
   -3.5067   -0.9763    0.0654 N   0  0  0  0  0  0  0  0  0  0  0  0
   -4.0750    1.4017    0.1239 N   0  0  0  0  0  0  0  0  0  0  0  0
   -5.2611    2.0209    0.2492 N   0  0  0  0  0  0  0  0  0  0  0  0
    5.6637    1.5900    0.2097 C   0  0  0  0  0  0  0  0  0  0  0  0
    4.2331   -0.0072    1.4238 C   0  0  0  0  0  0  0  0  0  0  0  0
    6.5024    1.5235   -1.0328 C   0  0  0  0  0  0  0  0  0  0  0  0
    6.9681    0.8481    0.2236 C   0  0  0  0  0  0  0  0  0  0  0  0
    4.4443    0.4703    2.8306 C   0  0  0  0  0  0  0  0  0  0  0  0
    3.0642    0.1204    2.3562 C   0  0  0  0  0  0  0  0  0  0  0  0
    3.3744    1.0699   -0.6698 C   0  0  0  0  0  0  0  0  0  0  0  0
    2.1441    0.3480   -0.5379 C   0  0  0  0  0  0  0  0  0  0  0  0
    1.9859   -1.0280   -0.5204 C   0  0  0  0  0  0  0  0  0  0  0  0
    0.6004   -1.2125   -0.3724 C   0  0  0  0  0  0  0  0  0  0  0  0
   -0.0609   -0.0136   -0.3023 C   0  0  0  0  0  0  0  0  0  0  0  0
    0.6631    2.3780   -0.3821 C   0  0  0  0  0  0  0  0  0  0  0  0
   -0.1292   -2.3475   -0.2939 C   0  0  0  0  0  0  0  0  0  0  0  0
   -1.4947   -2.3112   -0.1482 C   0  0  0  0  0  0  0  0  0  0  0  0
    0.1107    2.8810   -1.7070 C   0  0  0  0  0  0  0  0  0  0  0  0
   -2.1078   -1.0484   -0.0834 C   0  0  0  0  0  0  0  0  0  0  0  0
   -0.8915   -4.3630   -0.2112 C   0  0  0  0  0  0  0  0  0  0  0  0
    1.5835   -4.1914   -0.4757 C   0  0  0  0  0  0  0  0  0  0  0  0
   -4.4032    0.1074    0.1599 C   0  0  0  0  0  0  0  0  0  0  0  0
   -5.7881   -0.0981    0.3068 C   0  0  0  0  0  0  0  0  0  0  0  0
   -6.3191    1.1673    0.3624 C   0  0  0  0  0  0  0  0  0  0  0  0
   -7.7117    1.6279    0.5108 C   0  0  0  0  0  0  0  0  0  0  0  0
   -5.3057    3.4646    0.2589 C   0  0  0  0  0  0  0  0  0  0  0  0
    5.6355    2.5454    0.7245 H   0  0  0  0  0  0  0  0  0  0  0  0
    4.5761   -1.0130    1.2000 H   0  0  0  0  0  0  0  0  0  0  0  0
    6.1851    0.8866   -1.8494 H   0  0  0  0  0  0  0  0  0  0  0  0
    7.0175    2.4246   -1.3423 H   0  0  0  0  0  0  0  0  0  0  0  0
    6.9566   -0.2348    0.2407 H   0  0  0  0  0  0  0  0  0  0  0  0
    7.7960    1.2950    0.7603 H   0  0  0  0  0  0  0  0  0  0  0  0
    4.9257   -0.2067    3.5257 H   0  0  0  0  0  0  0  0  0  0  0  0
    4.6614    1.5171    3.0034 H   0  0  0  0  0  0  0  0  0  0  0  0
    2.3724    0.9473    2.2543 H   0  0  0  0  0  0  0  0  0  0  0  0
    2.6182   -0.7910    2.7358 H   0  0  0  0  0  0  0  0  0  0  0  0
    2.7794   -1.7545   -0.6117 H   0  0  0  0  0  0  0  0  0  0  0  0
    1.5877    2.9012   -0.1214 H   0  0  0  0  0  0  0  0  0  0  0  0
   -0.0523    2.5744    0.4249 H   0  0  0  0  0  0  0  0  0  0  0  0
    0.8053    2.6745   -2.5279 H   0  0  0  0  0  0  0  0  0  0  0  0
   -0.0529    3.9622   -1.6616 H   0  0  0  0  0  0  0  0  0  0  0  0
   -0.8448    2.4047   -1.9501 H   0  0  0  0  0  0  0  0  0  0  0  0
   -0.8902   -5.4447   -0.2105 H   0  0  0  0  0  0  0  0  0  0  0  0
    1.5137   -5.2827   -0.4646 H   0  0  0  0  0  0  0  0  0  0  0  0
    2.1980   -3.8626    0.3657 H   0  0  0  0  0  0  0  0  0  0  0  0
    2.0040   -3.8684   -1.4309 H   0  0  0  0  0  0  0  0  0  0  0  0
   -3.9218   -1.9063    0.1102 H   0  0  0  0  0  0  0  0  0  0  0  0
   -6.3298   -1.0316    0.3651 H   0  0  0  0  0  0  0  0  0  0  0  0
   -8.3990    0.7790    0.5882 H   0  0  0  0  0  0  0  0  0  0  0  0
   -8.0196    2.2270   -0.3522 H   0  0  0  0  0  0  0  0  0  0  0  0
   -7.8293    2.2339    1.4149 H   0  0  0  0  0  0  0  0  0  0  0  0
   -5.9353    3.7972   -0.5699 H   0  0  0  0  0  0  0  0  0  0  0  0
   -4.2947    3.8630    0.1374 H   0  0  0  0  0  0  0  0  0  0  0  0
   -5.7192    3.7912    1.2162 H   0  0  0  0  0  0  0  0  0  0  0  0
  1 16  2  0  0  0  0
  2 10  1  0  0  0  0
  2 11  1  0  0  0  0
  2 16  1  0  0  0  0
  3 17  1  0  0  0  0
  3 20  1  0  0  0  0
  3 21  1  0  0  0  0
  4 20  2  0  0  0  0
  4 25  1  0  0  0  0
  5 22  1  0  0  0  0
  5 26  1  0  0  0  0
  5 27  1  0  0  0  0
  6 23  1  0  0  0  0
  6 26  2  0  0  0  0
  7 25  1  0  0  0  0
  7 28  1  0  0  0  0
  7 53  1  0  0  0  0
  8  9  1  0  0  0  0
  8 28  2  0  0  0  0
  9 30  1  0  0  0  0
  9 32  1  0  0  0  0
 10 12  1  0  0  0  0
 10 13  1  0  0  0  0
 10 33  1  0  0  0  0
 11 14  1  0  0  0  0
 11 15  1  0  0  0  0
 11 34  1  0  0  0  0
 12 13  1  0  0  0  0
 12 35  1  0  0  0  0
 12 36  1  0  0  0  0
 13 37  1  0  0  0  0
 13 38  1  0  0  0  0
 14 15  1  0  0  0  0
 14 39  1  0  0  0  0
 14 40  1  0  0  0  0
 15 41  1  0  0  0  0
 15 42  1  0  0  0  0
 16 17  1  0  0  0  0
 17 18  2  0  0  0  0
 18 19  1  0  0  0  0
 18 43  1  0  0  0  0
 19 20  1  0  0  0  0
 19 22  2  0  0  0  0
 21 24  1  0  0  0  0
 21 44  1  0  0  0  0
 21 45  1  0  0  0  0
 22 23  1  0  0  0  0
 23 25  2  0  0  0  0
 24 46  1  0  0  0  0
 24 47  1  0  0  0  0
 24 48  1  0  0  0  0
 26 49  1  0  0  0  0
 27 50  1  0  0  0  0
 27 51  1  0  0  0  0
 27 52  1  0  0  0  0
 28 29  1  0  0  0  0
 29 30  2  0  0  0  0
 29 54  1  0  0  0  0
 30 31  1  0  0  0  0
 31 55  1  0  0  0  0
 31 56  1  0  0  0  0
 31 57  1  0  0  0  0
 32 58  1  0  0  0  0
 32 59  1  0  0  0  0
 32 60  1  0  0  0  0
M  END
> <PUBCHEM_COMPOUND_CID>
50922691

> <PUBCHEM_CONFORMER_RMSD>
1

> <PUBCHEM_CONFORMER_DIVERSEORDER>
1
16
30
45
48
4
40
24
44
5
12
10
46
15
36
41
39
38
19
21
29
32
33
2
23
14
26
31
20
3
9
42
27
22
11
43
7
13
28
6
17
47
37
18
25
34
8
35

> <PUBCHEM_MMFF94_PARTIAL_CHARGES>
44
1 -0.57
10 0.05
11 0.05
12 -0.2
13 -0.2
14 -0.2
15 -0.2
16 0.71
17 -0.24
18 -0.15
2 -0.36
20 0.11
21 0.26
22 -0.15
23 0.23
25 0.41
26 0.04
27 0.26
28 0.37
29 -0.15
3 0.05
30 -0.33
31 0.18
32 0.26
33 0.1
34 0.1
35 0.1
36 0.1
37 0.1
38 0.1
39 0.1
4 -0.57
40 0.1
41 0.1
42 0.1
43 0.15
49 0.15
5 0.05
53 0.4
54 0.15
6 -0.57
7 -0.58
8 -0.71
9 0.31

> <PUBCHEM_EFFECTIVE_ROTOR_COUNT>
8.2

> <PUBCHEM_PHARMACOPHORE_FEATURES>
9
1 1 acceptor
1 7 donor
3 3 4 20 cation
3 5 6 26 cation
3 7 8 28 cation
5 3 17 18 19 20 rings
5 5 6 22 23 26 rings
5 8 9 28 29 30 rings
6 4 19 20 22 23 25 rings

> <PUBCHEM_HEAVY_ATOM_COUNT>
32

> <PUBCHEM_ATOM_DEF_STEREO_COUNT>
0

> <PUBCHEM_ATOM_UDEF_STEREO_COUNT>
0

> <PUBCHEM_BOND_DEF_STEREO_COUNT>
0

> <PUBCHEM_BOND_UDEF_STEREO_COUNT>
0

> <PUBCHEM_ISOTOPIC_ATOM_COUNT>
0

> <PUBCHEM_COMPONENT_COUNT>
1

> <PUBCHEM_CACTVS_TAUTO_COUNT>
6

> <PUBCHEM_CONFORMER_ID>
030904C300000001

> <PUBCHEM_MMFF94_ENERGY>
84.1388

> <PUBCHEM_FEATURE_SELFOVERLAP>
45.904

> <PUBCHEM_SHAPE_FINGERPRINT>
10 15 18260271846011497281
10162869 55 18410008859137435445
10411042 1 17545607755916498207
10674148 151 18334297579222611192
10939801 23 18260269689469156668
10940486 97 18120098535405930084
11136131 41 18116994390689827099
11719270 70 18410007694378332681
12107183 9 18335412453436988146
12236239 1 18040996306413498196
12293681 160 17775290447726445987
12422481 6 17897434013245317457
12788726 201 17830737912666911611
13540713 4 18267889258032045631
13757389 114 18340210816121036254
14020679 6 17604150436059868801
14294032 229 18271813484093504619
14466204 15 18410292502075975153
14790565 3 18409455811923098524
15297060 5 18271815639649349842
15420108 30 18341038658388828903
15537594 2 17676477398268529122
15775530 1 17610326152576808269
15927050 60 18413389843137347383
1601671 61 18409730672813456508
19053607 189 18267013965150624961
20554085 129 18131063827182684642
20642791 105 18267590302374091499
20739085 24 18189061897522394941
21033648 29 18130217267843483512
212916 134 18271514373178729867
21421861 104 17895182287042013218
22149856 69 18267890315378913009
23559900 14 18049164363574508439
23569914 2 17056357272499541304
3411729 13 18335703789131297443
3459 39 18342161259581069897
350125 39 18267303119459606422
3918712 181 18342734101092802097
4017518 198 18201447982463149710
5265222 85 18340209716657264056
5385378 56 18340778031325122291
6086070 43 16917065599000148218
6328613 192 18263928902963311316
6371009 1 18337943597981555989
7226269 152 18060143162517280297
9981440 41 18408893927938809211

> <PUBCHEM_SHAPE_MULTIPOLES>
612.83
15.79
4.52
1.41
9.58
5.13
0.9
-15.48
3.93
2.6
-1.26
-2.47
-0.63
-0.85

> <PUBCHEM_SHAPE_SELFOVERLAP>
1350.507

> <PUBCHEM_SHAPE_VOLUME>
334.7

> <PUBCHEM_COORDINATE_TYPE>
2
5
10

$$$$
91668194
  -OEChem-11282412143D

 52 55  0     1  0  0  0  0  0999 V2000
    3.7313    0.7802    2.7184 F   0  0  0  0  0  0  0  0  0  0  0  0
    5.9130   -2.0012    0.2569 O   0  0  0  0  0  0  0  0  0  0  0  0
   -5.4140   -1.8451   -0.3907 O   0  0  0  0  0  0  0  0  0  0  0  0
    1.6489    0.8713    0.6030 N   0  0  0  0  0  0  0  0  0  0  0  0
    3.9833   -0.9105   -0.4406 N   0  0  0  0  0  0  0  0  0  0  0  0
    0.3441    2.7076    0.0896 N   0  0  0  0  0  0  0  0  0  0  0  0
   -0.5952    0.4590    0.2238 N   0  0  0  0  0  0  0  0  0  0  0  0
   -1.3609    4.3434   -0.4734 N   0  0  0  0  0  0  0  0  0  0  0  0
   -2.9133    0.0095   -0.1640 N   0  0  0  0  0  0  0  0  0  0  0  0
   -3.1375    3.0060   -0.6305 N   0  0  0  0  0  0  0  0  0  0  0  0
   -2.5764   -3.4935    0.3962 N   0  0  0  0  0  0  0  0  0  0  0  0
   -3.8955   -3.4900    0.1389 N   0  0  0  0  0  0  0  0  0  0  0  0
    3.4531   -0.6309    0.8710 C   0  0  1  0  0  0  0  0  0  0  0  0
    3.8711    0.7454    1.3635 C   0  0  1  0  0  0  0  0  0  0  0  0
    1.9236   -0.5433    0.8561 C   0  0  0  0  0  0  0  0  0  0  0  0
    2.8479    1.6958    0.7482 C   0  0  0  0  0  0  0  0  0  0  0  0
    0.4031    1.3728    0.2893 C   0  0  0  0  0  0  0  0  0  0  0  0
    5.1818   -1.5795   -0.6333 C   0  0  0  0  0  0  0  0  0  0  0  0
   -0.9093    3.0823   -0.2075 C   0  0  0  0  0  0  0  0  0  0  0  0
   -1.8361    0.9088   -0.0813 C   0  0  0  0  0  0  0  0  0  0  0  0
   -2.0258    2.2680   -0.3100 C   0  0  0  0  0  0  0  0  0  0  0  0
    5.5055   -1.7365   -2.0763 C   0  0  0  0  0  0  0  0  0  0  0  0
   -2.7045    4.2462   -0.7211 C   0  0  0  0  0  0  0  0  0  0  0  0
   -3.0119   -1.3874    0.0144 C   0  0  0  0  0  0  0  0  0  0  0  0
   -0.5796    5.5564   -0.4910 C   0  0  0  0  0  0  0  0  0  0  0  0
   -1.9996   -2.2590    0.3345 C   0  0  0  0  0  0  0  0  0  0  0  0
   -4.1556   -2.2008   -0.0937 C   0  0  0  0  0  0  0  0  0  0  0  0
    6.6261   -2.3587   -2.4547 C   0  0  0  0  0  0  0  0  0  0  0  0
   -1.9088   -4.7361    0.7024 C   0  0  0  0  0  0  0  0  0  0  0  0
   -6.4085   -2.8800   -0.4381 C   0  0  0  0  0  0  0  0  0  0  0  0
    3.7803   -1.4179    1.5591 H   0  0  0  0  0  0  0  0  0  0  0  0
    4.9020    1.0224    1.1258 H   0  0  0  0  0  0  0  0  0  0  0  0
    1.4881   -1.1954    0.0906 H   0  0  0  0  0  0  0  0  0  0  0  0
    1.5150   -0.8187    1.8355 H   0  0  0  0  0  0  0  0  0  0  0  0
    2.6751    2.5540    1.4058 H   0  0  0  0  0  0  0  0  0  0  0  0
    3.1775    2.0408   -0.2379 H   0  0  0  0  0  0  0  0  0  0  0  0
    3.4693   -0.5594   -1.2440 H   0  0  0  0  0  0  0  0  0  0  0  0
   -3.7813    0.4882   -0.4007 H   0  0  0  0  0  0  0  0  0  0  0  0
    4.8218   -1.3412   -2.8195 H   0  0  0  0  0  0  0  0  0  0  0  0
   -3.3143    5.1067   -0.9610 H   0  0  0  0  0  0  0  0  0  0  0  0
   -0.1385    5.6966    0.4990 H   0  0  0  0  0  0  0  0  0  0  0  0
    0.2010    5.4524   -1.2487 H   0  0  0  0  0  0  0  0  0  0  0  0
   -1.2251    6.4039   -0.7347 H   0  0  0  0  0  0  0  0  0  0  0  0
   -0.9440   -2.1226    0.5216 H   0  0  0  0  0  0  0  0  0  0  0  0
    6.8550   -2.4696   -3.5094 H   0  0  0  0  0  0  0  0  0  0  0  0
    7.3354   -2.7683   -1.7441 H   0  0  0  0  0  0  0  0  0  0  0  0
   -2.0295   -5.4100   -0.1494 H   0  0  0  0  0  0  0  0  0  0  0  0
   -0.8476   -4.5465    0.8812 H   0  0  0  0  0  0  0  0  0  0  0  0
   -2.3684   -5.1614    1.5981 H   0  0  0  0  0  0  0  0  0  0  0  0
   -7.3636   -2.4106   -0.6913 H   0  0  0  0  0  0  0  0  0  0  0  0
   -6.5142   -3.3628    0.5390 H   0  0  0  0  0  0  0  0  0  0  0  0
   -6.1711   -3.6121   -1.2170 H   0  0  0  0  0  0  0  0  0  0  0  0
  1 14  1  0  0  0  0
  2 18  2  0  0  0  0
  3 27  1  0  0  0  0
  3 30  1  0  0  0  0
  4 15  1  0  0  0  0
  4 16  1  0  0  0  0
  4 17  1  0  0  0  0
  5 13  1  0  0  0  0
  5 18  1  0  0  0  0
  5 37  1  0  0  0  0
  6 17  1  0  0  0  0
  6 19  2  0  0  0  0
  7 17  2  0  0  0  0
  7 20  1  0  0  0  0
  8 19  1  0  0  0  0
  8 23  1  0  0  0  0
  8 25  1  0  0  0  0
  9 20  1  0  0  0  0
  9 24  1  0  0  0  0
  9 38  1  0  0  0  0
 10 21  1  0  0  0  0
 10 23  2  0  0  0  0
 11 12  1  0  0  0  0
 11 26  1  0  0  0  0
 11 29  1  0  0  0  0
 12 27  2  0  0  0  0
 13 14  1  0  0  0  0
 13 15  1  0  0  0  0
 13 31  1  0  0  0  0
 14 16  1  0  0  0  0
 14 32  1  0  0  0  0
 15 33  1  0  0  0  0
 15 34  1  0  0  0  0
 16 35  1  0  0  0  0
 16 36  1  0  0  0  0
 18 22  1  0  0  0  0
 19 21  1  0  0  0  0
 20 21  2  0  0  0  0
 22 28  2  0  0  0  0
 22 39  1  0  0  0  0
 23 40  1  0  0  0  0
 24 26  2  0  0  0  0
 24 27  1  0  0  0  0
 25 41  1  0  0  0  0
 25 42  1  0  0  0  0
 25 43  1  0  0  0  0
 26 44  1  0  0  0  0
 28 45  1  0  0  0  0
 28 46  1  0  0  0  0
 29 47  1  0  0  0  0
 29 48  1  0  0  0  0
 29 49  1  0  0  0  0
 30 50  1  0  0  0  0
 30 51  1  0  0  0  0
 30 52  1  0  0  0  0
M  END
> <PUBCHEM_COMPOUND_CID>
91668194

> <PUBCHEM_CONFORMER_RMSD>
1

> <PUBCHEM_CONFORMER_DIVERSEORDER>
1
74
84
64
65
15
57
75
77
19
80
67
70
34
40
72
61
23
35
42
87
21
62
31
29
9
8
83
86
14
4
13
50
76
71
11
54
44
26
27
5
43
51
82
41
73
12
55
47
20
7
79
46
85
66
24
16
69
39
36
25
56
78
22
63
18
28
59
58
49
30
60
48
45
53
33
32
6
81
10
52
3
38
68
17
37
2

> <PUBCHEM_MMFF94_PARTIAL_CHARGES>
37
1 -0.34
10 -0.57
11 0.31
12 -0.71
13 0.3
14 0.34
15 0.37
16 0.37
17 0.72
18 0.62
19 0.11
2 -0.57
20 0.41
21 0.23
22 -0.14
23 0.04
24 0.08
25 0.26
26 -0.3
27 0.35
28 -0.3
29 0.26
3 -0.34
30 0.28
37 0.37
38 0.4
39 0.15
4 -0.84
40 0.15
44 0.15
45 0.15
46 0.15
5 -0.73
6 -0.57
7 -0.62
8 0.05
9 -0.58

> <PUBCHEM_EFFECTIVE_ROTOR_COUNT>
8

> <PUBCHEM_PHARMACOPHORE_FEATURES>
11
1 2 acceptor
1 28 hydrophobe
1 5 donor
1 9 cation
1 9 donor
3 8 10 23 cation
4 4 6 7 17 cation
5 11 12 24 26 27 rings
5 4 13 14 15 16 rings
5 8 10 19 21 23 rings
6 6 7 17 19 20 21 rings

> <PUBCHEM_HEAVY_ATOM_COUNT>
30

> <PUBCHEM_ATOM_DEF_STEREO_COUNT>
2

> <PUBCHEM_ATOM_UDEF_STEREO_COUNT>
0

> <PUBCHEM_BOND_DEF_STEREO_COUNT>
0

> <PUBCHEM_BOND_UDEF_STEREO_COUNT>
0

> <PUBCHEM_ISOTOPIC_ATOM_COUNT>
0

> <PUBCHEM_COMPONENT_COUNT>
1

> <PUBCHEM_CACTVS_TAUTO_COUNT>
6

> <PUBCHEM_CONFORMER_ID>
0576BEE200000001

> <PUBCHEM_MMFF94_ENERGY>
71.1587

> <PUBCHEM_FEATURE_SELFOVERLAP>
55.955

> <PUBCHEM_SHAPE_FINGERPRINT>
10411042 1 18337105765467442459
107951 10 17980764835367132525
10940486 97 18189061898008211604
11049842 53 16749859227995602272
11056379 131 18337679594393579252
11062273 19 17688588686131283997
12107183 9 18265898146148502923
12342043 65 18060702784430079666
12623949 98 17845379997650173630
12788726 201 18186794811698499008
13008946 113 16825320909348257457
13540713 4 18201706329014252760
1361 87 17340713816094224798
13690498 29 18340217310422967030
13757389 114 18047202855614939996
13785724 45 18266750254263573327
138480 1 16033221677884162505
14251757 5 18336839593279930942
14415361 349 17699850914856719110
14444916 359 17909283390028635025
14725015 67 18412256220847501730
14866123 147 18339644443622011739
15042514 8 18410004421497565913
15230672 131 17831870045257180814
15530120 55 17829936141953640550
15664445 248 17978240683515119036
15927050 60 17980194193939569383
22849339 104 18195255420846701556
23379529 103 18341339976156411150
23559900 14 17761481892042340569
24771750 20 17033605254352491317
3103668 31 18261381219111265981
314173 41 18118958337573810787
4058900 60 17402903223930879972
508706 21 18270116795331856734
58902169 19 17533240574477397966
613672 6 18193822963180559659
9709674 26 18341878680940325296

> <PUBCHEM_SHAPE_MULTIPOLES>
553.54
12.93
7.13
1.41
12.37
5.01
-0.06
-16.46
-5.32
-9.12
-1.37
3.21
-0.42
3.15

> <PUBCHEM_SHAPE_SELFOVERLAP>
1195.141

> <PUBCHEM_SHAPE_VOLUME>
309

> <PUBCHEM_COORDINATE_TYPE>
2
5
10

$$$$
126715380
  -OEChem-11282412143D

 67 71  0     1  0  0  0  0  0999 V2000
    4.4315   -0.4580   -2.2164 O   0  0  0  0  0  0  0  0  0  0  0  0
   -7.5594    2.2142   -0.0468 O   0  0  0  0  0  0  0  0  0  0  0  0
    6.2298    0.2980   -0.0869 N   0  0  0  0  0  0  0  0  0  0  0  0
    7.2036    2.5692    1.4137 N   0  0  0  0  0  0  0  0  0  0  0  0
    3.2199   -1.2298   -0.3600 N   0  0  0  0  0  0  0  0  0  0  0  0
    0.8013   -2.0719    1.2811 N   0  0  0  0  0  0  0  0  0  0  0  0
   -3.4825   -1.1448    0.4948 N   0  0  0  0  0  0  0  0  0  0  0  0
   -5.6250   -0.1967    0.3693 N   0  0  0  0  0  0  0  0  0  0  0  0
   -5.4534   -2.4941    0.8144 N   0  0  0  0  0  0  0  0  0  0  0  0
   -4.2963    3.0366   -0.3003 N   0  0  0  0  0  0  0  0  0  0  0  0
   -5.5956    3.3784   -0.3310 N   0  0  0  0  0  0  0  0  0  0  0  0
    5.3050    1.2503    0.5400 C   0  0  0  0  0  0  0  0  0  0  0  0
    7.4855    0.2295    0.6703 C   0  0  0  0  0  0  0  0  0  0  0  0
    5.9469    2.6370    0.6580 C   0  0  0  0  0  0  0  0  0  0  0  0
    8.1279    1.6160    0.7872 C   0  0  0  0  0  0  0  0  0  0  0  0
    5.6172   -1.0244   -0.1971 C   0  0  2  0  0  0  0  0  0  0  0  0
    6.6101   -1.9967   -0.8234 C   0  0  0  0  0  0  0  0  0  0  0  0
    4.3669   -0.8592   -1.0577 C   0  0  0  0  0  0  0  0  0  0  0  0
    7.8164    3.8917    1.5218 C   0  0  0  0  0  0  0  0  0  0  0  0
    1.8832   -1.2131   -0.8247 C   0  0  0  0  0  0  0  0  0  0  0  0
    0.8129   -1.6145   -0.0173 C   0  0  0  0  0  0  0  0  0  0  0  0
   -0.5111   -1.6045   -0.4613 C   0  0  0  0  0  0  0  0  0  0  0  0
   -1.3162   -2.0712    0.6153 C   0  0  0  0  0  0  0  0  0  0  0  0
    1.5895   -0.7890   -2.1238 C   0  0  0  0  0  0  0  0  0  0  0  0
   -0.7827   -1.1731   -1.7749 C   0  0  0  0  0  0  0  0  0  0  0  0
   -0.4810   -2.3502    1.6724 C   0  0  0  0  0  0  0  0  0  0  0  0
    0.2779   -0.7687   -2.5937 C   0  0  0  0  0  0  0  0  0  0  0  0
   -2.7376   -2.2525    0.6912 C   0  0  0  0  0  0  0  0  0  0  0  0
   -3.2705   -3.4988    0.9506 C   0  0  0  0  0  0  0  0  0  0  0  0
   -4.8136   -1.3347    0.5694 C   0  0  0  0  0  0  0  0  0  0  0  0
   -4.6481   -3.5604    1.0012 C   0  0  0  0  0  0  0  0  0  0  0  0
   -5.3249    1.1509    0.0969 C   0  0  0  0  0  0  0  0  0  0  0  0
   -4.0802    1.7137   -0.0478 C   0  0  0  0  0  0  0  0  0  0  0  0
   -6.2190    2.2225   -0.0876 C   0  0  0  0  0  0  0  0  0  0  0  0
   -3.2850    4.0414   -0.5259 C   0  0  0  0  0  0  0  0  0  0  0  0
   -8.2434    3.4569   -0.2710 C   0  0  0  0  0  0  0  0  0  0  0  0
    4.9984    0.9018    1.5359 H   0  0  0  0  0  0  0  0  0  0  0  0
    4.3940    1.3836   -0.0536 H   0  0  0  0  0  0  0  0  0  0  0  0
    8.2295   -0.3960    0.1667 H   0  0  0  0  0  0  0  0  0  0  0  0
    7.3208   -0.1886    1.6727 H   0  0  0  0  0  0  0  0  0  0  0  0
    6.1147    3.0527   -0.3449 H   0  0  0  0  0  0  0  0  0  0  0  0
    5.2417    3.3010    1.1727 H   0  0  0  0  0  0  0  0  0  0  0  0
    9.0353    1.5260    1.3969 H   0  0  0  0  0  0  0  0  0  0  0  0
    8.4361    1.9658   -0.2076 H   0  0  0  0  0  0  0  0  0  0  0  0
    5.3492   -1.4104    0.7951 H   0  0  0  0  0  0  0  0  0  0  0  0
    7.3744   -2.3309   -0.1143 H   0  0  0  0  0  0  0  0  0  0  0  0
    6.0857   -2.8980   -1.1634 H   0  0  0  0  0  0  0  0  0  0  0  0
    7.1029   -1.5732   -1.7066 H   0  0  0  0  0  0  0  0  0  0  0  0
    8.7299    3.8438    2.1248 H   0  0  0  0  0  0  0  0  0  0  0  0
    7.1404    4.5880    2.0305 H   0  0  0  0  0  0  0  0  0  0  0  0
    8.0714    4.3124    0.5424 H   0  0  0  0  0  0  0  0  0  0  0  0
    3.3316   -1.5507    0.5983 H   0  0  0  0  0  0  0  0  0  0  0  0
    2.3393   -0.4572   -2.8294 H   0  0  0  0  0  0  0  0  0  0  0  0
    1.6197   -2.1855    1.8630 H   0  0  0  0  0  0  0  0  0  0  0  0
   -1.7994   -1.1508   -2.1570 H   0  0  0  0  0  0  0  0  0  0  0  0
   -0.6759   -2.7195    2.6703 H   0  0  0  0  0  0  0  0  0  0  0  0
    0.0727   -0.4348   -3.6075 H   0  0  0  0  0  0  0  0  0  0  0  0
   -2.6652   -4.3840    1.1030 H   0  0  0  0  0  0  0  0  0  0  0  0
   -5.1580   -4.4974    1.1981 H   0  0  0  0  0  0  0  0  0  0  0  0
   -6.6102   -0.4430    0.4451 H   0  0  0  0  0  0  0  0  0  0  0  0
   -3.0777    1.3128    0.0022 H   0  0  0  0  0  0  0  0  0  0  0  0
   -3.4404    4.4684   -1.5198 H   0  0  0  0  0  0  0  0  0  0  0  0
   -3.3869    4.8104    0.2438 H   0  0  0  0  0  0  0  0  0  0  0  0
   -2.2946    3.5831   -0.4672 H   0  0  0  0  0  0  0  0  0  0  0  0
   -7.9799    4.1901    0.4985 H   0  0  0  0  0  0  0  0  0  0  0  0
   -8.0308    3.8425   -1.2736 H   0  0  0  0  0  0  0  0  0  0  0  0
   -9.3175    3.2614   -0.2018 H   0  0  0  0  0  0  0  0  0  0  0  0
  1 18  2  0  0  0  0
  2 34  1  0  0  0  0
  2 36  1  0  0  0  0
  3 12  1  0  0  0  0
  3 13  1  0  0  0  0
  3 16  1  0  0  0  0
  4 14  1  0  0  0  0
  4 15  1  0  0  0  0
  4 19  1  0  0  0  0
  5 18  1  0  0  0  0
  5 20  1  0  0  0  0
  5 52  1  0  0  0  0
  6 21  1  0  0  0  0
  6 26  1  0  0  0  0
  6 54  1  0  0  0  0
  7 28  2  0  0  0  0
  7 30  1  0  0  0  0
  8 30  1  0  0  0  0
  8 32  1  0  0  0  0
  8 60  1  0  0  0  0
  9 30  2  0  0  0  0
  9 31  1  0  0  0  0
 10 11  1  0  0  0  0
 10 33  1  0  0  0  0
 10 35  1  0  0  0  0
 11 34  2  0  0  0  0
 12 14  1  0  0  0  0
 12 37  1  0  0  0  0
 12 38  1  0  0  0  0
 13 15  1  0  0  0  0
 13 39  1  0  0  0  0
 13 40  1  0  0  0  0
 14 41  1  0  0  0  0
 14 42  1  0  0  0  0
 15 43  1  0  0  0  0
 15 44  1  0  0  0  0
 16 17  1  0  0  0  0
 16 18  1  0  0  0  0
 16 45  1  0  0  0  0
 17 46  1  0  0  0  0
 17 47  1  0  0  0  0
 17 48  1  0  0  0  0
 19 49  1  0  0  0  0
 19 50  1  0  0  0  0
 19 51  1  0  0  0  0
 20 21  1  0  0  0  0
 20 24  2  0  0  0  0
 21 22  2  0  0  0  0
 22 23  1  0  0  0  0
 22 25  1  0  0  0  0
 23 26  2  0  0  0  0
 23 28  1  0  0  0  0
 24 27  1  0  0  0  0
 24 53  1  0  0  0  0
 25 27  2  0  0  0  0
 25 55  1  0  0  0  0
 26 56  1  0  0  0  0
 27 57  1  0  0  0  0
 28 29  1  0  0  0  0
 29 31  2  0  0  0  0
 29 58  1  0  0  0  0
 31 59  1  0  0  0  0
 32 33  2  0  0  0  0
 32 34  1  0  0  0  0
 33 61  1  0  0  0  0
 35 62  1  0  0  0  0
 35 63  1  0  0  0  0
 35 64  1  0  0  0  0
 36 65  1  0  0  0  0
 36 66  1  0  0  0  0
 36 67  1  0  0  0  0
M  END
> <PUBCHEM_COMPOUND_CID>
126715380

> <PUBCHEM_CONFORMER_RMSD>
1.2

> <PUBCHEM_CONFORMER_DIVERSEORDER>
1
87
110
46
138
77
69
28
40
132
57
36
116
117
53
122
118
38
43
7
112
109
99
128
96
20
63
104
91
82
76
95
139
31
78
60
14
37
129
102
111
67
114
108
93
90
75
113
17
97
115
123
23
45
25
134
47
101
81
130
42
65
124
21
62
72
44
136
120
70
13
26
100
105
66
10
119
85
58
54
64
126
61
131
16
29
140
73
86
98
89
4
34
27
92
107
68
94
19
79
15
135
80
32
71
49
55
137
30
5
74
59
83
127
56
125
51
11
24
50
2
103
39
106
84
9
33
8
22
18
48
41
121
88
35
6
3
52
133
12

> <PUBCHEM_MMFF94_PARTIAL_CHARGES>
44
1 -0.57
10 0.31
11 -0.71
12 0.27
13 0.27
14 0.27
15 0.27
16 0.33
18 0.57
19 0.27
2 -0.34
20 0.12
21 -0.15
23 -0.05
24 -0.15
25 -0.15
26 -0.3
27 -0.15
28 0.36
29 -0.15
3 -0.81
30 0.72
31 0.16
32 0.08
33 -0.3
34 0.35
35 0.26
36 0.28
4 -0.81
5 -0.55
52 0.37
53 0.15
54 0.27
55 0.15
56 0.15
57 0.15
58 0.15
59 0.15
6 0.03
60 0.4
61 0.15
7 -0.62
8 -0.58
9 -0.62

> <PUBCHEM_EFFECTIVE_ROTOR_COUNT>
9.2

> <PUBCHEM_PHARMACOPHORE_FEATURES>
14
1 1 acceptor
1 3 cation
1 4 cation
1 5 donor
1 6 cation
1 6 donor
1 7 acceptor
1 8 donor
4 7 8 9 30 cation
5 10 11 32 33 34 rings
5 6 21 22 23 26 rings
6 20 21 22 24 25 27 rings
6 3 4 12 13 14 15 rings
6 7 9 28 29 30 31 rings

> <PUBCHEM_HEAVY_ATOM_COUNT>
36

> <PUBCHEM_ATOM_DEF_STEREO_COUNT>
1

> <PUBCHEM_ATOM_UDEF_STEREO_COUNT>
0

> <PUBCHEM_BOND_DEF_STEREO_COUNT>
0

> <PUBCHEM_BOND_UDEF_STEREO_COUNT>
0

> <PUBCHEM_ISOTOPIC_ATOM_COUNT>
0

> <PUBCHEM_COMPONENT_COUNT>
1

> <PUBCHEM_CACTVS_TAUTO_COUNT>
727

> <PUBCHEM_CONFORMER_ID>
078D85F400000001

> <PUBCHEM_MMFF94_ENERGY>
93.3952

> <PUBCHEM_FEATURE_SELFOVERLAP>
71.143

> <PUBCHEM_SHAPE_FINGERPRINT>
10554248 39 16200442334435057294
11409948 8 18334870403559353265
11761917 142 18335701589939548372
11991303 11 17131828802469331214
12655364 131 16588011395132504115
12838862 33 18040993991806350237
12888983 3 18271237313893324944
13383665 225 17968676990491518724
13911987 19 16845576409270912831
14150022 121 18189331432558730716
14428016 30 18341327881502261604
14739800 52 18262795155744497971
14767858 380 14764628594860442958
15131766 46 17700966907075660696
15320295 198 18272372005503081888
15968369 153 18202005464532910164
16664035 7 18194685002515104579
17686467 74 18270402827944523747
20511986 3 17676765354467031219
21033648 29 18335707147516037474
21130935 74 18259703415633197746
21133410 221 18128799988803269521
21136928 126 15960903491196949792
21585482 111 18341331184917941296
21814621 53 18410022026574144562
21859007 373 18412267216527463806
23522609 53 16879379824878202102
23569914 2 17768485587500908808
23569943 247 9653930345934032460
2838139 119 18270678666979201470
3918712 181 18336820876134799641
397830 11 18341899631875165366
4144715 1 18337684095672831890
44802255 64 17917995000976021143
5047190 69 18409450289148621281
504843 32 17060056007617985486
5104073 3 18114449116488682778
6697151 62 17272026259455188654

> <PUBCHEM_SHAPE_MULTIPOLES>
684.3
24.69
5.25
1.64
18.91
3.94
-0.8
25.62
6.44
-6.47
1.63
1.58
-0.63
5.54

> <PUBCHEM_SHAPE_SELFOVERLAP>
1484.38

> <PUBCHEM_SHAPE_VOLUME>
373.7

> <PUBCHEM_COORDINATE_TYPE>
2
5
10

$$$$
139377809
  -OEChem-11282412143D

 76 79  0     1  0  0  0  0  0999 V2000
    0.1135   -1.6456    2.4082 Cl  0  0  0  0  0  0  0  0  0  0  0  0
   -1.3284   -4.1490    1.7439 F   0  0  0  0  0  0  0  0  0  0  0  0
    1.8348    4.6623    0.3362 O   0  0  0  0  0  0  0  0  0  0  0  0
    0.0233   -1.0011   -2.2807 O   0  0  0  0  0  0  0  0  0  0  0  0
   -5.5028   -1.0356   -1.1712 O   0  0  0  0  0  0  0  0  0  0  0  0
    3.9765    0.4025    0.3807 N   0  0  3  0  0  0  0  0  0  0  0  0
    6.5943   -1.9771   -0.4745 N   0  0  0  0  0  0  0  0  0  0  0  0
    1.6019   -0.8128   -0.5460 N   0  0  0  0  0  0  0  0  0  0  0  0
   -0.5585    3.5067   -0.5869 N   0  0  0  0  0  0  0  0  0  0  0  0
   -2.2735    1.9756   -0.1388 N   0  0  0  0  0  0  0  0  0  0  0  0
   -4.0487    0.4521    0.3072 N   0  0  0  0  0  0  0  0  0  0  0  0
   -2.7735    4.2311   -0.8247 N   0  0  0  0  0  0  0  0  0  0  0  0
    5.9924   -0.7589    0.0388 C   0  0  2  0  0  0  0  0  0  0  0  0
    5.6117   -0.8572    1.5120 C   0  0  0  0  0  0  0  0  0  0  0  0
    4.6582   -0.4066   -0.6296 C   0  0  0  0  0  0  0  0  0  0  0  0
    4.6339    0.3055    1.6833 C   0  0  0  0  0  0  0  0  0  0  0  0
    2.8500    1.1584    0.1371 C   0  0  0  0  0  0  0  0  0  0  0  0
    6.8869   -1.8518   -1.9060 C   0  0  0  0  0  0  0  0  0  0  0  0
    7.8194   -2.3045    0.2616 C   0  0  0  0  0  0  0  0  0  0  0  0
    1.6732    0.5650   -0.3202 C   0  0  0  0  0  0  0  0  0  0  0  0
    2.8976    2.5353    0.3552 C   0  0  0  0  0  0  0  0  0  0  0  0
    0.5443    1.3484   -0.5593 C   0  0  0  0  0  0  0  0  0  0  0  0
    1.7684    3.3188    0.1165 C   0  0  0  0  0  0  0  0  0  0  0  0
    0.5917    2.7254   -0.3409 C   0  0  0  0  0  0  0  0  0  0  0  0
    0.8099   -1.4920   -1.4795 C   0  0  0  0  0  0  0  0  0  0  0  0
   -1.9352    3.2242   -0.5133 C   0  0  0  0  0  0  0  0  0  0  0  0
   -5.2560   -2.1124   -0.2397 C   0  0  0  0  0  0  0  0  0  0  0  0
    1.4894    5.1224    1.6411 C   0  0  0  0  0  0  0  0  0  0  0  0
   -3.9214   -1.9755    0.4178 C   0  0  0  0  0  0  0  0  0  0  0  0
    1.0217   -2.9670   -1.4080 C   0  0  0  0  0  0  0  0  0  0  0  0
   -3.3658   -0.7207    0.6680 C   0  0  0  0  0  0  0  0  0  0  0  0
   -6.4161   -2.0551    0.7814 C   0  0  0  0  0  0  0  0  0  0  0  0
   -5.3651   -3.4142   -1.0676 C   0  0  0  0  0  0  0  0  0  0  0  0
   -3.6004    1.7392   -0.0787 C   0  0  0  0  0  0  0  0  0  0  0  0
   -3.2291   -3.1301    0.7831 C   0  0  0  0  0  0  0  0  0  0  0  0
   -2.1180   -0.6205    1.2835 C   0  0  0  0  0  0  0  0  0  0  0  0
   -1.9816   -3.0300    1.3990 C   0  0  0  0  0  0  0  0  0  0  0  0
   -4.5617    2.6848   -0.3724 C   0  0  0  0  0  0  0  0  0  0  0  0
   -1.4259   -1.7752    1.6491 C   0  0  0  0  0  0  0  0  0  0  0  0
   -4.0851    3.9256   -0.7434 C   0  0  0  0  0  0  0  0  0  0  0  0
    0.3536   -3.7900   -2.2223 C   0  0  0  0  0  0  0  0  0  0  0  0
    6.6785    0.0933   -0.0840 H   0  0  0  0  0  0  0  0  0  0  0  0
    5.0977   -1.8038    1.7246 H   0  0  0  0  0  0  0  0  0  0  0  0
    6.4606   -0.7640    2.1961 H   0  0  0  0  0  0  0  0  0  0  0  0
    4.8147    0.1624   -1.5531 H   0  0  0  0  0  0  0  0  0  0  0  0
    4.1000   -1.3161   -0.8682 H   0  0  0  0  0  0  0  0  0  0  0  0
    3.9205    0.1036    2.4891 H   0  0  0  0  0  0  0  0  0  0  0  0
    5.1731    1.2331    1.9053 H   0  0  0  0  0  0  0  0  0  0  0  0
    5.9723   -1.7280   -2.4948 H   0  0  0  0  0  0  0  0  0  0  0  0
    7.5573   -1.0110   -2.1187 H   0  0  0  0  0  0  0  0  0  0  0  0
    7.3603   -2.7670   -2.2804 H   0  0  0  0  0  0  0  0  0  0  0  0
    8.2927   -3.1977   -0.1630 H   0  0  0  0  0  0  0  0  0  0  0  0
    8.5506   -1.4883    0.2332 H   0  0  0  0  0  0  0  0  0  0  0  0
    7.6079   -2.5528    1.3065 H   0  0  0  0  0  0  0  0  0  0  0  0
    3.8119    3.0085    0.7061 H   0  0  0  0  0  0  0  0  0  0  0  0
   -0.3597    0.8861   -0.9326 H   0  0  0  0  0  0  0  0  0  0  0  0
    2.2929   -1.3628   -0.0433 H   0  0  0  0  0  0  0  0  0  0  0  0
   -0.3671    4.4927   -0.7372 H   0  0  0  0  0  0  0  0  0  0  0  0
    1.5708    6.2127    1.6523 H   0  0  0  0  0  0  0  0  0  0  0  0
    2.1788    4.7125    2.3860 H   0  0  0  0  0  0  0  0  0  0  0  0
    0.4601    4.8462    1.8906 H   0  0  0  0  0  0  0  0  0  0  0  0
    1.7234   -3.3665   -0.6840 H   0  0  0  0  0  0  0  0  0  0  0  0
   -6.3361   -2.8582    1.5222 H   0  0  0  0  0  0  0  0  0  0  0  0
   -6.4261   -1.0998    1.3185 H   0  0  0  0  0  0  0  0  0  0  0  0
   -7.3869   -2.1418    0.2800 H   0  0  0  0  0  0  0  0  0  0  0  0
   -4.5269   -3.5117   -1.7682 H   0  0  0  0  0  0  0  0  0  0  0  0
   -6.2727   -3.4000   -1.6842 H   0  0  0  0  0  0  0  0  0  0  0  0
   -5.4206   -4.3141   -0.4469 H   0  0  0  0  0  0  0  0  0  0  0  0
   -3.6241   -4.1285    0.6331 H   0  0  0  0  0  0  0  0  0  0  0  0
   -5.0360    0.3151    0.1162 H   0  0  0  0  0  0  0  0  0  0  0  0
   -1.6819    0.3416    1.5332 H   0  0  0  0  0  0  0  0  0  0  0  0
   -6.3922   -1.1537   -1.5461 H   0  0  0  0  0  0  0  0  0  0  0  0
   -5.6246    2.4847   -0.3201 H   0  0  0  0  0  0  0  0  0  0  0  0
   -4.7653    4.7329   -0.9929 H   0  0  0  0  0  0  0  0  0  0  0  0
    0.5138   -4.8614   -2.1602 H   0  0  0  0  0  0  0  0  0  0  0  0
   -0.3585   -3.4339   -2.9583 H   0  0  0  0  0  0  0  0  0  0  0  0
  1 39  1  0  0  0  0
  2 37  1  0  0  0  0
  3 23  1  0  0  0  0
  3 28  1  0  0  0  0
  4 25  2  0  0  0  0
  5 27  1  0  0  0  0
  5 72  1  0  0  0  0
  6 15  1  0  0  0  0
  6 16  1  0  0  0  0
  6 17  1  0  0  0  0
  7 13  1  0  0  0  0
  7 18  1  0  0  0  0
  7 19  1  0  0  0  0
  8 20  1  0  0  0  0
  8 25  1  0  0  0  0
  8 57  1  0  0  0  0
  9 24  1  0  0  0  0
  9 26  1  0  0  0  0
  9 58  1  0  0  0  0
 10 26  1  0  0  0  0
 10 34  2  0  0  0  0
 11 31  1  0  0  0  0
 11 34  1  0  0  0  0
 11 70  1  0  0  0  0
 12 26  2  0  0  0  0
 12 40  1  0  0  0  0
 13 14  1  0  0  0  0
 13 15  1  0  0  0  0
 13 42  1  0  0  0  0
 14 16  1  0  0  0  0
 14 43  1  0  0  0  0
 14 44  1  0  0  0  0
 15 45  1  0  0  0  0
 15 46  1  0  0  0  0
 16 47  1  0  0  0  0
 16 48  1  0  0  0  0
 17 20  1  0  0  0  0
 17 21  2  0  0  0  0
 18 49  1  0  0  0  0
 18 50  1  0  0  0  0
 18 51  1  0  0  0  0
 19 52  1  0  0  0  0
 19 53  1  0  0  0  0
 19 54  1  0  0  0  0
 20 22  2  0  0  0  0
 21 23  1  0  0  0  0
 21 55  1  0  0  0  0
 22 24  1  0  0  0  0
 22 56  1  0  0  0  0
 23 24  2  0  0  0  0
 25 30  1  0  0  0  0
 27 29  1  0  0  0  0
 27 32  1  0  0  0  0
 27 33  1  0  0  0  0
 28 59  1  0  0  0  0
 28 60  1  0  0  0  0
 28 61  1  0  0  0  0
 29 31  1  0  0  0  0
 29 35  2  0  0  0  0
 30 41  2  0  0  0  0
 30 62  1  0  0  0  0
 31 36  2  0  0  0  0
 32 63  1  0  0  0  0
 32 64  1  0  0  0  0
 32 65  1  0  0  0  0
 33 66  1  0  0  0  0
 33 67  1  0  0  0  0
 33 68  1  0  0  0  0
 34 38  1  0  0  0  0
 35 37  1  0  0  0  0
 35 69  1  0  0  0  0
 36 39  1  0  0  0  0
 36 71  1  0  0  0  0
 37 39  2  0  0  0  0
 38 40  2  0  0  0  0
 38 73  1  0  0  0  0
 40 74  1  0  0  0  0
 41 75  1  0  0  0  0
 41 76  1  0  0  0  0
M  END
> <PUBCHEM_COMPOUND_CID>
139377809

> <PUBCHEM_CONFORMER_RMSD>
1.2

> <PUBCHEM_CONFORMER_DIVERSEORDER>
1
26
45
68
91
63
29
107
52
99
76
81
78
59
70
116
93
46
80
43
73
112
88
13
65
60
105
42
69
37
12
61
108
85
3
34
109
98
15
96
64
95
49
111
113
89
11
101
30
104
87
67
47
7
24
84
97
32
33
35
83
118
44
19
27
106
58
110
20
36
79
94
86
4
77
5
62
66
102
57
55
71
17
92
21
117
23
9
16
53
39
114
38
40
115
51
28
72
82
100
74
41
48
25
103
75
10
56
31
90
6
50
8
22
2
54
14
18

> <PUBCHEM_MMFF94_PARTIAL_CHARGES>
51
1 -0.18
10 -0.62
11 -0.6
12 -0.62
13 0.27
15 0.37
16 0.37
17 0.1
18 0.27
19 0.27
2 -0.19
20 0.12
21 -0.15
22 -0.15
23 0.08
24 0.1
25 0.62
26 0.72
27 0.42
28 0.28
29 -0.14
3 -0.36
30 -0.14
31 0.1
34 0.41
35 -0.15
36 -0.15
37 0.19
38 -0.15
39 0.18
4 -0.57
40 0.16
41 -0.3
5 -0.68
55 0.15
56 0.15
57 0.37
58 0.4
6 -0.84
62 0.15
69 0.15
7 -0.81
70 0.4
71 0.15
72 0.4
73 0.15
74 0.15
75 0.15
76 0.15
8 -0.55
9 -0.6

> <PUBCHEM_EFFECTIVE_ROTOR_COUNT>
12

> <PUBCHEM_PHARMACOPHORE_FEATURES>
16
1 11 donor
1 3 acceptor
1 4 acceptor
1 41 hydrophobe
1 5 acceptor
1 5 donor
1 6 cation
1 7 cation
1 8 donor
1 9 donor
3 27 32 33 hydrophobe
4 9 10 12 26 cation
5 6 13 14 15 16 rings
6 10 12 26 34 38 40 rings
6 17 20 21 22 23 24 rings
6 29 31 35 36 37 39 rings

> <PUBCHEM_HEAVY_ATOM_COUNT>
41

> <PUBCHEM_ATOM_DEF_STEREO_COUNT>
1

> <PUBCHEM_ATOM_UDEF_STEREO_COUNT>
0

> <PUBCHEM_BOND_DEF_STEREO_COUNT>
0

> <PUBCHEM_BOND_UDEF_STEREO_COUNT>
0

> <PUBCHEM_ISOTOPIC_ATOM_COUNT>
0

> <PUBCHEM_COMPONENT_COUNT>
1

> <PUBCHEM_CACTVS_TAUTO_COUNT>
-1

> <PUBCHEM_CONFORMER_ID>
084EBC9100000001

> <PUBCHEM_MMFF94_ENERGY>
174.6373

> <PUBCHEM_FEATURE_SELFOVERLAP>
81.211

> <PUBCHEM_SHAPE_FINGERPRINT>
10290309 65 17614276663554210629
10940486 97 18041848307097300844
11513181 2 18191861232468123866
11828532 37 17679873875850820083
12107698 1 18337386145090271123
12166972 35 17988368173348836674
12597179 24 18123469380358341158
12645989 146 18340208586875357806
1361 2 17837491122407141759
13782708 43 17988924496088838958
13811026 1 18412257333169210424
140371 6 18125732192680085756
14117953 113 18343021103902776399
14415360 78 9295018903883415627
14725015 67 18408321116555697067
15351339 4 18043522820319034331
15815584 197 17916594124503788238
15927050 60 18048028580683868265
17627616 140 17898279512065077483
19311894 1 18338798892683026321
20764821 26 18192165810036002157
21033648 29 17774704425387935258
21703447 108 18193264415684765768
23559900 14 18118685654168262875
24893992 56 18041276669621959651
3380486 145 18195552318824313776
437795 70 18335987493322369162
508706 21 18409455769105040767
5171179 24 18340484564415171112
5265222 85 17968389939867152300
9896288 288 18193002509032983049

> <PUBCHEM_SHAPE_MULTIPOLES>
785.88
14.74
6.73
1.81
14.61
6.06
0.13
-11.43
-0.87
-3.96
-0.25
0.64
-1.47
2.44

> <PUBCHEM_SHAPE_SELFOVERLAP>
1669.962

> <PUBCHEM_SHAPE_VOLUME>
442.5

> <PUBCHEM_COORDINATE_TYPE>
2
5
10

$$$$
139467635
  -OEChem-11282412143D

 73 78  0     1  0  0  0  0  0999 V2000
   -4.3432   -4.2028    0.0237 O   0  0  0  0  0  0  0  0  0  0  0  0
   -5.1010    3.3917   -0.3328 O   0  0  0  0  0  0  0  0  0  0  0  0
   -3.0077   -1.3335   -0.2571 N   0  0  0  0  0  0  0  0  0  0  0  0
   -2.6926    0.9463    0.3391 N   0  0  0  0  0  0  0  0  0  0  0  0
    5.5138   -0.0196    0.0050 N   0  0  0  0  0  0  0  0  0  0  0  0
    7.5482   -1.9086    0.6777 N   0  0  0  0  0  0  0  0  0  0  0  0
   -4.0420    1.3672    0.2802 N   0  0  0  0  0  0  0  0  0  0  0  0
   -0.5903    2.1383   -0.2872 N   0  0  0  0  0  0  0  0  0  0  0  0
    1.2339    3.4528   -0.9636 N   0  0  0  0  0  0  0  0  0  0  0  0
   -0.9115    4.3970   -1.1352 N   0  0  0  0  0  0  0  0  0  0  0  0
   -3.2176   -3.8034   -0.7503 C   0  0  2  0  0  0  0  0  0  0  0  0
   -2.0930   -4.8500   -0.5913 C   0  0  0  0  0  0  0  0  0  0  0  0
   -1.3169   -4.4626    0.6819 C   0  0  0  0  0  0  0  0  0  0  0  0
   -2.5741   -2.5975   -0.1115 C   0  0  0  0  0  0  0  0  0  0  0  0
   -1.5059   -2.9827    0.6935 C   0  0  0  0  0  0  0  0  0  0  0  0
   -3.6325   -3.6058   -2.2004 C   0  0  0  0  0  0  0  0  0  0  0  0
   -0.8195   -2.0206    1.4064 C   0  0  0  0  0  0  0  0  0  0  0  0
   -4.2710   -4.8582   -2.7750 C   0  0  0  0  0  0  0  0  0  0  0  0
   -2.3086   -0.4081    0.4426 C   0  0  0  0  0  0  0  0  0  0  0  0
   -1.2261   -0.6952    1.2737 C   0  0  0  0  0  0  0  0  0  0  0  0
    6.1532    0.0262    1.3261 C   0  0  0  0  0  0  0  0  0  0  0  0
    5.5715   -1.3130   -0.6831 C   0  0  0  0  0  0  0  0  0  0  0  0
    7.5649   -0.5609    1.2598 C   0  0  0  0  0  0  0  0  0  0  0  0
    7.0020   -1.8577   -0.6838 C   0  0  0  0  0  0  0  0  0  0  0  0
   -1.9202    2.0562   -0.1212 C   0  0  0  0  0  0  0  0  0  0  0  0
    4.4437    0.8486   -0.2379 C   0  0  0  0  0  0  0  0  0  0  0  0
   -2.7622    3.0960   -0.4691 C   0  0  0  0  0  0  0  0  0  0  0  0
   -4.1288    2.6712   -0.1993 C   0  0  0  0  0  0  0  0  0  0  0  0
    8.8941   -2.4806    0.6697 C   0  0  0  0  0  0  0  0  0  0  0  0
   -5.0664    0.7364    1.0831 C   0  0  0  0  0  0  0  0  0  0  0  0
    4.6290    2.2278   -0.1416 C   0  0  0  0  0  0  0  0  0  0  0  0
    3.1916    0.3351   -0.5760 C   0  0  0  0  0  0  0  0  0  0  0  0
   -2.2407    4.2575   -0.9671 C   0  0  0  0  0  0  0  0  0  0  0  0
    2.3104    2.5798   -0.7220 C   0  0  0  0  0  0  0  0  0  0  0  0
   -0.1613    3.3217   -0.7850 C   0  0  0  0  0  0  0  0  0  0  0  0
    3.5624    3.0934   -0.3837 C   0  0  0  0  0  0  0  0  0  0  0  0
    2.1249    1.2006   -0.8181 C   0  0  0  0  0  0  0  0  0  0  0  0
   -5.0047    1.2837    2.4703 C   0  0  0  0  0  0  0  0  0  0  0  0
   -4.8055    0.5333    3.5597 C   0  0  0  0  0  0  0  0  0  0  0  0
   -1.4006   -4.7988   -1.4436 H   0  0  0  0  0  0  0  0  0  0  0  0
   -2.4593   -5.8798   -0.5200 H   0  0  0  0  0  0  0  0  0  0  0  0
   -0.2646   -4.7512    0.6097 H   0  0  0  0  0  0  0  0  0  0  0  0
   -1.7693   -4.9096    1.5730 H   0  0  0  0  0  0  0  0  0  0  0  0
   -4.3662   -2.7926   -2.2718 H   0  0  0  0  0  0  0  0  0  0  0  0
   -2.7739   -3.3117   -2.8163 H   0  0  0  0  0  0  0  0  0  0  0  0
    0.0091   -2.2833    2.0546 H   0  0  0  0  0  0  0  0  0  0  0  0
   -4.5318   -5.1383   -0.1597 H   0  0  0  0  0  0  0  0  0  0  0  0
   -3.5961   -5.7181   -2.7324 H   0  0  0  0  0  0  0  0  0  0  0  0
   -4.5227   -4.6924   -3.8281 H   0  0  0  0  0  0  0  0  0  0  0  0
   -5.2007   -5.1175   -2.2595 H   0  0  0  0  0  0  0  0  0  0  0  0
   -0.7063    0.0820    1.8257 H   0  0  0  0  0  0  0  0  0  0  0  0
    6.2285    1.0512    1.7068 H   0  0  0  0  0  0  0  0  0  0  0  0
    5.5423   -0.5397    2.0414 H   0  0  0  0  0  0  0  0  0  0  0  0
    4.9058   -2.0305   -0.1864 H   0  0  0  0  0  0  0  0  0  0  0  0
    5.2463   -1.2129   -1.7262 H   0  0  0  0  0  0  0  0  0  0  0  0
    8.2129    0.1064    0.6754 H   0  0  0  0  0  0  0  0  0  0  0  0
    7.9687   -0.5979    2.2789 H   0  0  0  0  0  0  0  0  0  0  0  0
    6.9853   -2.8641   -1.1197 H   0  0  0  0  0  0  0  0  0  0  0  0
    7.6322   -1.2324   -1.3309 H   0  0  0  0  0  0  0  0  0  0  0  0
    9.5945   -1.8870    0.0710 H   0  0  0  0  0  0  0  0  0  0  0  0
    8.8758   -3.5001    0.2686 H   0  0  0  0  0  0  0  0  0  0  0  0
    9.2871   -2.5521    1.6899 H   0  0  0  0  0  0  0  0  0  0  0  0
   -6.0400    0.9983    0.6530 H   0  0  0  0  0  0  0  0  0  0  0  0
   -4.9756   -0.3520    1.0509 H   0  0  0  0  0  0  0  0  0  0  0  0
    5.6001    2.6482    0.1067 H   0  0  0  0  0  0  0  0  0  0  0  0
    3.0097   -0.7330   -0.6550 H   0  0  0  0  0  0  0  0  0  0  0  0
   -2.8525    5.1041   -1.2499 H   0  0  0  0  0  0  0  0  0  0  0  0
    3.7202    4.1662   -0.3074 H   0  0  0  0  0  0  0  0  0  0  0  0
    1.1812    0.7579   -1.1187 H   0  0  0  0  0  0  0  0  0  0  0  0
    1.5063    4.3998   -1.2096 H   0  0  0  0  0  0  0  0  0  0  0  0
   -5.1516    2.3529    2.6025 H   0  0  0  0  0  0  0  0  0  0  0  0
   -4.7810    0.9884    4.5437 H   0  0  0  0  0  0  0  0  0  0  0  0
   -4.6621   -0.5394    3.4903 H   0  0  0  0  0  0  0  0  0  0  0  0
  1 11  1  0  0  0  0
  1 47  1  0  0  0  0
  2 28  2  0  0  0  0
  3 14  1  0  0  0  0
  3 19  2  0  0  0  0
  4  7  1  0  0  0  0
  4 19  1  0  0  0  0
  4 25  1  0  0  0  0
  5 21  1  0  0  0  0
  5 22  1  0  0  0  0
  5 26  1  0  0  0  0
  6 23  1  0  0  0  0
  6 24  1  0  0  0  0
  6 29  1  0  0  0  0
  7 28  1  0  0  0  0
  7 30  1  0  0  0  0
  8 25  2  0  0  0  0
  8 35  1  0  0  0  0
  9 34  1  0  0  0  0
  9 35  1  0  0  0  0
  9 70  1  0  0  0  0
 10 33  1  0  0  0  0
 10 35  2  0  0  0  0
 11 12  1  0  0  0  0
 11 14  1  0  0  0  0
 11 16  1  0  0  0  0
 12 13  1  0  0  0  0
 12 40  1  0  0  0  0
 12 41  1  0  0  0  0
 13 15  1  0  0  0  0
 13 42  1  0  0  0  0
 13 43  1  0  0  0  0
 14 15  2  0  0  0  0
 15 17  1  0  0  0  0
 16 18  1  0  0  0  0
 16 44  1  0  0  0  0
 16 45  1  0  0  0  0
 17 20  2  0  0  0  0
 17 46  1  0  0  0  0
 18 48  1  0  0  0  0
 18 49  1  0  0  0  0
 18 50  1  0  0  0  0
 19 20  1  0  0  0  0
 20 51  1  0  0  0  0
 21 23  1  0  0  0  0
 21 52  1  0  0  0  0
 21 53  1  0  0  0  0
 22 24  1  0  0  0  0
 22 54  1  0  0  0  0
 22 55  1  0  0  0  0
 23 56  1  0  0  0  0
 23 57  1  0  0  0  0
 24 58  1  0  0  0  0
 24 59  1  0  0  0  0
 25 27  1  0  0  0  0
 26 31  2  0  0  0  0
 26 32  1  0  0  0  0
 27 28  1  0  0  0  0
 27 33  2  0  0  0  0
 29 60  1  0  0  0  0
 29 61  1  0  0  0  0
 29 62  1  0  0  0  0
 30 38  1  0  0  0  0
 30 63  1  0  0  0  0
 30 64  1  0  0  0  0
 31 36  1  0  0  0  0
 31 65  1  0  0  0  0
 32 37  2  0  0  0  0
 32 66  1  0  0  0  0
 33 67  1  0  0  0  0
 34 36  2  0  0  0  0
 34 37  1  0  0  0  0
 36 68  1  0  0  0  0
 37 69  1  0  0  0  0
 38 39  2  0  0  0  0
 38 71  1  0  0  0  0
 39 72  1  0  0  0  0
 39 73  1  0  0  0  0
M  END
> <PUBCHEM_COMPOUND_CID>
139467635

> <PUBCHEM_CONFORMER_RMSD>
1

> <PUBCHEM_CONFORMER_DIVERSEORDER>
1
17
113
174
165
159
175
123
66
97
68
167
92
129
38
164
121
143
114
75
110
52
145
103
131
78
151
99
67
180
35
60
48
31
53
18
100
134
108
169
90
138
119
104
80
43
61
140
176
107
128
158
55
137
69
74
148
62
27
70
13
163
50
117
147
89
79
160
76
161
111
98
96
46
24
94
125
127
49
177
63
11
58
166
59
139
178
7
156
101
21
168
144
25
81
91
152
47
179
51
39
93
124
28
173
40
44
34
57
72
9
149
126
8
105
82
120
153
122
83
172
102
6
12
88
22
95
23
4
41
157
86
116
112
77
171
5
15
130
65
56
146
3
37
133
42
142
85
135
118
109
162
30
14
29
33
154
54
115
19
87
155
84
36
150
106
141
16
73
2
64
132
136
26
170
32
10
45
20
71

> <PUBCHEM_MMFF94_PARTIAL_CHARGES>
48
1 -0.68
10 -0.62
11 0.42
13 0.14
14 0.17
15 -0.14
17 -0.15
19 0.41
2 -0.57
20 -0.15
21 0.37
22 0.37
23 0.27
24 0.27
25 0.41
26 0.1
27 0.09
28 0.54
29 0.27
3 -0.62
30 0.44
31 -0.15
32 -0.15
33 0.16
34 0.1
35 0.72
36 -0.15
37 -0.15
38 -0.29
39 -0.3
4 -0.22
46 0.15
47 0.4
5 -0.84
51 0.15
6 -0.81
65 0.15
66 0.15
67 0.15
68 0.15
69 0.15
7 -0.34
70 0.4
71 0.15
72 0.15
73 0.15
8 -0.62
9 -0.6

> <PUBCHEM_EFFECTIVE_ROTOR_COUNT>
8.8

> <PUBCHEM_PHARMACOPHORE_FEATURES>
16
1 1 acceptor
1 1 donor
1 18 hydrophobe
1 2 acceptor
1 39 hydrophobe
1 5 cation
1 6 cation
1 9 donor
3 3 4 19 cation
4 8 9 10 35 cation
5 11 12 13 14 15 rings
5 4 7 25 27 28 rings
6 26 31 32 34 36 37 rings
6 3 14 15 17 19 20 rings
6 5 6 21 22 23 24 rings
6 8 10 25 27 33 35 rings

> <PUBCHEM_HEAVY_ATOM_COUNT>
39

> <PUBCHEM_ATOM_DEF_STEREO_COUNT>
1

> <PUBCHEM_ATOM_UDEF_STEREO_COUNT>
0

> <PUBCHEM_BOND_DEF_STEREO_COUNT>
0

> <PUBCHEM_BOND_UDEF_STEREO_COUNT>
0

> <PUBCHEM_ISOTOPIC_ATOM_COUNT>
0

> <PUBCHEM_COMPONENT_COUNT>
1

> <PUBCHEM_CACTVS_TAUTO_COUNT>
-1

> <PUBCHEM_CONFORMER_ID>
08501B7300000001

> <PUBCHEM_MMFF94_ENERGY>
147.2332

> <PUBCHEM_FEATURE_SELFOVERLAP>
81.401

> <PUBCHEM_SHAPE_FINGERPRINT>
10254770 206 18335133168576963674
10290309 65 17831857954627843252
10305334 12 18412826854591867759
10622 236 18052817237053531783
10940486 97 18187373086982138044
11297010 23 17973148540699523525
11513181 2 17979344270655097239
11720765 8 17479160321775273749
11763389 116 18192994816060032182
13008946 267 17406277633817840041
14178184 131 18410009902018078642
14659021 117 18336532906971708736
14866123 147 18409731776878300051
15320294 125 17822857455516757254
15320467 1 18264770965682113566
15361156 5 18260561034817705318
15419009 47 18337668608421449002
16628084 112 18190465059607701871
19301676 85 18192422202536859439
19303781 99 17894347787850003800
19311894 1 18335978739756740437
19315092 285 16983504851279953841
21133410 171 17470108961077068722
21133665 82 18044941169503248770
21703447 108 17909262825920673568
22223350 30 18271804687240698000
229767 44 18410299073085384952
23569914 152 17838300281551647071
255183 313 18342472421745991387
3383291 50 18338516326884550016
3504750 166 18342733052835717718
3882209 13 17977639207635876444
4017518 198 18121209888305825444
437795 96 18127415553862166622
44880168 125 18411138026433066208
56633871 153 18337402624774635369
57527293 21 18341624762526669708
57527295 17 16616746359379816511
6058803 2 18194138527540130349
613672 6 17760076711380601754
6201320 77 16663763516165847659
6636735 143 18198316538977079104
9896288 288 18120940499093662216

> <PUBCHEM_SHAPE_MULTIPOLES>
751.02
17.71
7.63
1.93
43.64
3.9
-0.91
9.69
-5.35
-9.72
4.27
-3.24
0.88
-3.59

> <PUBCHEM_SHAPE_SELFOVERLAP>
1637.735

> <PUBCHEM_SHAPE_VOLUME>
406.3

> <PUBCHEM_COORDINATE_TYPE>
2
5
10

$$$$
146421275
  -OEChem-11282412143D

 76 81  0     1  0  0  0  0  0999 V2000
   -4.7157   -0.4767   -1.5877 O   0  0  0  0  0  0  0  0  0  0  0  0
    9.8664    2.1279    1.1003 O   0  0  0  0  0  0  0  0  0  0  0  0
   -5.4025    1.3343   -0.3550 N   0  0  0  0  0  0  0  0  0  0  0  0
   -4.6638   -2.0565    0.6773 N   0  0  2  0  0  0  0  0  0  0  0  0
   -5.9420    4.4202   -0.1634 N   0  0  0  0  0  0  0  0  0  0  0  0
   -1.2156   -2.7135   -0.5829 N   0  0  0  0  0  0  0  0  0  0  0  0
   -0.6929   -0.8279    0.5000 N   0  0  0  0  0  0  0  0  0  0  0  0
    1.6215   -3.1223   -1.1800 N   0  0  0  0  0  0  0  0  0  0  0  0
    2.9530   -2.9528   -1.2394 N   0  0  0  0  0  0  0  0  0  0  0  0
   -6.4773    3.0642   -0.1531 C   0  0  0  0  0  0  0  0  0  0  0  0
   -5.8904    2.2854   -1.3382 C   0  0  0  0  0  0  0  0  0  0  0  0
   -5.6295    2.1985    0.7896 C   0  0  0  0  0  0  0  0  0  0  0  0
   -4.4885   -0.5863    0.7886 C   0  0  2  0  0  0  0  0  0  0  0  0
   -4.8730    0.0828   -0.5037 C   0  0  0  0  0  0  0  0  0  0  0  0
   -3.0452   -0.1744    1.2001 C   0  0  0  0  0  0  0  0  0  0  0  0
   -3.7606   -2.7188   -0.2923 C   0  0  0  0  0  0  0  0  0  0  0  0
   -6.0518   -2.4598    0.4727 C   0  0  0  0  0  0  0  0  0  0  0  0
   -2.0420   -1.0392    0.5342 C   0  0  0  0  0  0  0  0  0  0  0  0
   -2.3870   -2.1956   -0.1210 C   0  0  0  0  0  0  0  0  0  0  0  0
   -6.6722    5.2314   -1.1434 C   0  0  0  0  0  0  0  0  0  0  0  0
   -6.0675    5.0107    1.1735 C   0  0  0  0  0  0  0  0  0  0  0  0
   -6.9621   -1.7480    1.4695 C   0  0  0  0  0  0  0  0  0  0  0  0
   -6.1659   -3.9745    0.6116 C   0  0  0  0  0  0  0  0  0  0  0  0
   -0.2225   -1.8540   -0.1821 C   0  0  0  0  0  0  0  0  0  0  0  0
    1.2068   -2.0618   -0.4833 C   0  0  0  0  0  0  0  0  0  0  0  0
    2.2656   -1.2126   -0.0958 C   0  0  0  0  0  0  0  0  0  0  0  0
    3.4039   -1.8251   -0.6081 C   0  0  0  0  0  0  0  0  0  0  0  0
    2.3940   -0.0108    0.6204 C   0  0  0  0  0  0  0  0  0  0  0  0
    4.6885   -1.3020   -0.4463 C   0  0  0  0  0  0  0  0  0  0  0  0
    4.8001   -0.1050    0.2684 C   0  0  0  0  0  0  0  0  0  0  0  0
    3.6738    0.5312    0.7935 C   0  0  0  0  0  0  0  0  0  0  0  0
    6.1085    0.4830    0.4663 C   0  0  0  0  0  0  0  0  0  0  0  0
    6.6347    1.3937   -0.4499 C   0  0  0  0  0  0  0  0  0  0  0  0
    6.8449    0.1256    1.5957 C   0  0  0  0  0  0  0  0  0  0  0  0
    5.8747    1.8007   -1.6714 C   0  0  0  0  0  0  0  0  0  0  0  0
    7.8973    1.9469   -0.2366 C   0  0  0  0  0  0  0  0  0  0  0  0
    8.1074    0.6788    1.8089 C   0  0  0  0  0  0  0  0  0  0  0  0
    8.6337    1.5894    0.8927 C   0  0  0  0  0  0  0  0  0  0  0  0
    6.3935    1.1128   -2.9299 C   0  0  0  0  0  0  0  0  0  0  0  0
   -7.5604    2.9579   -0.0160 H   0  0  0  0  0  0  0  0  0  0  0  0
   -6.6298    1.8610   -2.0227 H   0  0  0  0  0  0  0  0  0  0  0  0
   -5.0722    2.7429   -1.9037 H   0  0  0  0  0  0  0  0  0  0  0  0
   -4.6831    2.5938    1.1706 H   0  0  0  0  0  0  0  0  0  0  0  0
   -6.1997    1.7365    1.5995 H   0  0  0  0  0  0  0  0  0  0  0  0
   -5.1057   -0.2050    1.6050 H   0  0  0  0  0  0  0  0  0  0  0  0
   -2.9308   -0.2950    2.2846 H   0  0  0  0  0  0  0  0  0  0  0  0
   -2.8444    0.8748    0.9575 H   0  0  0  0  0  0  0  0  0  0  0  0
   -3.7035   -3.7898   -0.0640 H   0  0  0  0  0  0  0  0  0  0  0  0
   -4.0848   -2.6376   -1.3340 H   0  0  0  0  0  0  0  0  0  0  0  0
   -6.3991   -2.1977   -0.5350 H   0  0  0  0  0  0  0  0  0  0  0  0
   -1.0977   -3.5638   -1.1187 H   0  0  0  0  0  0  0  0  0  0  0  0
   -7.7420    5.2956   -0.9123 H   0  0  0  0  0  0  0  0  0  0  0  0
   -6.5645    4.8217   -2.1536 H   0  0  0  0  0  0  0  0  0  0  0  0
   -6.2653    6.2484   -1.1759 H   0  0  0  0  0  0  0  0  0  0  0  0
   -5.4378    4.5098    1.9149 H   0  0  0  0  0  0  0  0  0  0  0  0
   -7.1030    4.9957    1.5341 H   0  0  0  0  0  0  0  0  0  0  0  0
   -5.7312    6.0542    1.1579 H   0  0  0  0  0  0  0  0  0  0  0  0
   -6.5884   -1.8264    2.4970 H   0  0  0  0  0  0  0  0  0  0  0  0
   -7.9600   -2.2031    1.4609 H   0  0  0  0  0  0  0  0  0  0  0  0
   -7.1197   -0.6938    1.2223 H   0  0  0  0  0  0  0  0  0  0  0  0
   -5.7053   -4.3342    1.5389 H   0  0  0  0  0  0  0  0  0  0  0  0
   -5.7184   -4.5082   -0.2330 H   0  0  0  0  0  0  0  0  0  0  0  0
   -7.2192   -4.2780    0.6357 H   0  0  0  0  0  0  0  0  0  0  0  0
    3.5017   -3.6480   -1.7298 H   0  0  0  0  0  0  0  0  0  0  0  0
    1.5336    0.5023    1.0379 H   0  0  0  0  0  0  0  0  0  0  0  0
    5.5539   -1.8094   -0.8608 H   0  0  0  0  0  0  0  0  0  0  0  0
    3.7720    1.4627    1.3479 H   0  0  0  0  0  0  0  0  0  0  0  0
    6.4510   -0.5827    2.3209 H   0  0  0  0  0  0  0  0  0  0  0  0
    5.9690    2.8876   -1.7987 H   0  0  0  0  0  0  0  0  0  0  0  0
    4.7978    1.6290   -1.5847 H   0  0  0  0  0  0  0  0  0  0  0  0
    8.3090    2.6577   -0.9494 H   0  0  0  0  0  0  0  0  0  0  0  0
    8.6765    0.3963    2.6904 H   0  0  0  0  0  0  0  0  0  0  0  0
    6.3050    0.0242   -2.8526 H   0  0  0  0  0  0  0  0  0  0  0  0
    5.8174    1.4389   -3.8018 H   0  0  0  0  0  0  0  0  0  0  0  0
    7.4462    1.3521   -3.1144 H   0  0  0  0  0  0  0  0  0  0  0  0
   10.0723    2.7357    0.3694 H   0  0  0  0  0  0  0  0  0  0  0  0
  1 14  2  0  0  0  0
  2 38  1  0  0  0  0
  2 76  1  0  0  0  0
  3 11  1  0  0  0  0
  3 12  1  0  0  0  0
  3 14  1  0  0  0  0
  4 13  1  0  0  0  0
  4 16  1  0  0  0  0
  4 17  1  0  0  0  0
  5 10  1  0  0  0  0
  5 20  1  0  0  0  0
  5 21  1  0  0  0  0
  6 19  1  0  0  0  0
  6 24  1  0  0  0  0
  6 51  1  0  0  0  0
  7 18  1  0  0  0  0
  7 24  2  0  0  0  0
  8  9  1  0  0  0  0
  8 25  2  0  0  0  0
  9 27  1  0  0  0  0
  9 64  1  0  0  0  0
 10 11  1  0  0  0  0
 10 12  1  0  0  0  0
 10 40  1  0  0  0  0
 11 41  1  0  0  0  0
 11 42  1  0  0  0  0
 12 43  1  0  0  0  0
 12 44  1  0  0  0  0
 13 14  1  0  0  0  0
 13 15  1  0  0  0  0
 13 45  1  0  0  0  0
 15 18  1  0  0  0  0
 15 46  1  0  0  0  0
 15 47  1  0  0  0  0
 16 19  1  0  0  0  0
 16 48  1  0  0  0  0
 16 49  1  0  0  0  0
 17 22  1  0  0  0  0
 17 23  1  0  0  0  0
 17 50  1  0  0  0  0
 18 19  2  0  0  0  0
 20 52  1  0  0  0  0
 20 53  1  0  0  0  0
 20 54  1  0  0  0  0
 21 55  1  0  0  0  0
 21 56  1  0  0  0  0
 21 57  1  0  0  0  0
 22 58  1  0  0  0  0
 22 59  1  0  0  0  0
 22 60  1  0  0  0  0
 23 61  1  0  0  0  0
 23 62  1  0  0  0  0
 23 63  1  0  0  0  0
 24 25  1  0  0  0  0
 25 26  1  0  0  0  0
 26 27  2  0  0  0  0
 26 28  1  0  0  0  0
 27 29  1  0  0  0  0
 28 31  2  0  0  0  0
 28 65  1  0  0  0  0
 29 30  2  0  0  0  0
 29 66  1  0  0  0  0
 30 31  1  0  0  0  0
 30 32  1  0  0  0  0
 31 67  1  0  0  0  0
 32 33  2  0  0  0  0
 32 34  1  0  0  0  0
 33 35  1  0  0  0  0
 33 36  1  0  0  0  0
 34 37  2  0  0  0  0
 34 68  1  0  0  0  0
 35 39  1  0  0  0  0
 35 69  1  0  0  0  0
 35 70  1  0  0  0  0
 36 38  2  0  0  0  0
 36 71  1  0  0  0  0
 37 38  1  0  0  0  0
 37 72  1  0  0  0  0
 39 73  1  0  0  0  0
 39 74  1  0  0  0  0
 39 75  1  0  0  0  0
M  END
> <PUBCHEM_COMPOUND_CID>
146421275

> <PUBCHEM_CONFORMER_RMSD>
1

> <PUBCHEM_CONFORMER_DIVERSEORDER>
1
14
90
89
102
60
105
117
71
64
98
62
81
78
84
88
107
66
75
54
57
37
124
82
65
106
67
28
87
95
74
93
77
120
92
104
100
18
15
121
114
50
44
68
130
96
128
115
45
99
20
27
97
51
19
26
125
118
12
72
53
73
3
32
69
103
35
13
49
22
48
110
33
31
58
119
101
91
9
83
52
38
30
25
34
10
116
70
5
112
4
43
36
24
59
113
8
7
55
23
2
6
85
109
29
76
17
21
11
39
129
47
56
16
123
111
108
63
86
46
94
61
40
126
42
127
122
80
79
41

> <PUBCHEM_MMFF94_PARTIAL_CHARGES>
42
1 -0.57
10 0.21
11 0.22
12 0.22
13 0.33
14 0.57
15 0.18
16 0.45
17 0.27
18 0.05
19 -0.33
2 -0.53
20 0.27
21 0.27
24 0.19
25 0.29
27 -0.15
28 -0.15
29 -0.15
3 -0.51
31 -0.15
33 -0.14
34 -0.15
35 0.14
36 -0.15
37 -0.15
38 0.08
4 -0.81
5 -0.75
51 0.27
6 0.03
64 0.27
65 0.15
66 0.15
67 0.15
68 0.15
7 -0.57
71 0.15
72 0.15
76 0.45
8 -0.71
9 0.3

> <PUBCHEM_EFFECTIVE_ROTOR_COUNT>
8.6

> <PUBCHEM_PHARMACOPHORE_FEATURES>
16
1 1 acceptor
1 2 donor
1 39 hydrophobe
1 4 cation
1 5 cation
1 6 donor
1 8 acceptor
1 9 donor
3 17 22 23 hydrophobe
3 6 7 24 cation
4 3 10 11 12 rings
5 6 7 18 19 24 rings
5 8 9 25 26 27 rings
6 26 27 28 29 30 31 rings
6 32 33 34 36 37 38 rings
6 4 13 15 16 18 19 rings

> <PUBCHEM_HEAVY_ATOM_COUNT>
39

> <PUBCHEM_ATOM_DEF_STEREO_COUNT>
1

> <PUBCHEM_ATOM_UDEF_STEREO_COUNT>
0

> <PUBCHEM_BOND_DEF_STEREO_COUNT>
0

> <PUBCHEM_BOND_UDEF_STEREO_COUNT>
0

> <PUBCHEM_ISOTOPIC_ATOM_COUNT>
0

> <PUBCHEM_COMPONENT_COUNT>
1

> <PUBCHEM_CACTVS_TAUTO_COUNT>
-1

> <PUBCHEM_CONFORMER_ID>
08BA361B00000001

> <PUBCHEM_MMFF94_ENERGY>
104.5743

> <PUBCHEM_FEATURE_SELFOVERLAP>
81.39

> <PUBCHEM_SHAPE_FINGERPRINT>
10 15 18338233873024918586
10280341 67 18339070515237134372
10290309 65 18201727228146559431
10533779 1 18265320738486817885
10554248 39 18059289843179597838
10675989 125 18050569534602054691
10835480 77 18341046337499482499
11181472 205 18260548923500956684
11411753 3 18269010720799782935
11456790 92 18262507192132448192
11621639 183 18259989244893505201
11621639 254 18342729699600065285
12013929 29 17841438033780009457
12124843 1 17772738387319647333
12664476 115 18272086145416853635
12975358 362 18192451683609051797
13560911 23 17749387121975499089
13726171 33 18340491050485130057
13782708 43 8646475319849022103
14118638 360 18410007750102696435
14150022 121 18334858346989709215
14294032 229 18271518801917766174
14512766 119 18339928112868620373
15289351 153 18338223909053979386
15328684 2 17895456082301013104
15347591 1 18410856516765002603
15350500 55 18412257316606747044
15803439 3 16486962973709597607
16126227 98 18339085866320266209
16664035 7 18338796849153545757
17686467 74 17678456591833590427
18603816 31 9078837433239722695
18608769 82 18199752625168515627
19053607 189 18271513213790748376
19304144 158 18413952788752882135
19841028 212 10663286410011308236
20691028 202 18192153686103598357
21033648 144 18131355206876647751
21033648 29 18260838046891424255
21057603 285 14996566123080339356
21130935 74 18260544503162666202
21792965 106 18270394976227348904
22033318 11 17821727209414851284
22122407 14 17823146786173671044
22899556 10 18118129066428159611
23516275 100 18193269694232065581
23522609 53 17603884324814536020
23569914 152 16911455649819165078
249057 25 17458633366532994767
2748736 6 18408882923583717532
3418910 222 17969238887655868597
3504750 166 8141785202857180001
3525247 154 18059284371122718609
3918712 181 18268424646663175696
3991529 202 17824807959713385698
4073 2 18410293571543755395
4144715 1 18261968404652943707
437795 83 18131064931395799097
44802255 64 17346309415108074989
474113 269 7852985245380831233
48014 12 18411145753132226065
5937810 71 17988928838459213169
6201320 82 18341907259684952624
636775 72 18411695478733766657
6376802 90 18410859833059893347
6698420 124 18054237536321776097
9555976 147 17749681808435525290
999808 66 8286199469872384514

> <PUBCHEM_SHAPE_MULTIPOLES>
756
28.89
5.53
1.6
31.52
5.51
-0.51
24.93
5.33
-16.21
-0.68
2.11
0.61
1.96

> <PUBCHEM_SHAPE_SELFOVERLAP>
1661.641

> <PUBCHEM_SHAPE_VOLUME>
413.6

> <PUBCHEM_COORDINATE_TYPE>
2
5
10

$$$$
155309155
  -OEChem-11282412143D

 62 66  0     0  0  0  0  0  0999 V2000
   -0.2647   -3.1590   -2.3190 F   0  0  0  0  0  0  0  0  0  0  0  0
    0.3808   -4.4215    0.0400 O   0  0  0  0  0  0  0  0  0  0  0  0
    3.8677    3.3072   -1.7568 O   0  0  0  0  0  0  0  0  0  0  0  0
   -3.1706    2.4184    0.1378 N   0  0  0  0  0  0  0  0  0  0  0  0
   -5.5774    2.3452    0.0099 N   0  0  0  0  0  0  0  0  0  0  0  0
   -6.4529    0.0774   -0.1250 N   0  0  0  0  0  0  0  0  0  0  0  0
   -5.0506   -1.8486   -0.1282 N   0  0  0  0  0  0  0  0  0  0  0  0
    3.2564    3.0714    0.4880 N   0  0  0  0  0  0  0  0  0  0  0  0
    2.2338   -3.0289    0.1931 N   0  0  0  0  0  0  0  0  0  0  0  0
    2.4749   -5.4251    0.1079 N   0  0  0  0  0  0  0  0  0  0  0  0
   -2.1465    1.5064    0.1535 C   0  0  0  0  0  0  0  0  0  0  0  0
   -2.6957    0.2444    0.0750 C   0  0  0  0  0  0  0  0  0  0  0  0
   -4.1046    0.3957    0.0089 C   0  0  0  0  0  0  0  0  0  0  0  0
   -4.3679    1.7594    0.0495 C   0  0  0  0  0  0  0  0  0  0  0  0
   -0.7563    1.9092    0.2396 C   0  0  0  0  0  0  0  0  0  0  0  0
   -1.9040   -0.9563    0.0656 C   0  0  0  0  0  0  0  0  0  0  0  0
   -3.0260    3.8582    0.2027 C   0  0  0  0  0  0  0  0  0  0  0  0
   -5.2082   -0.4513   -0.0817 C   0  0  0  0  0  0  0  0  0  0  0  0
   -0.0270    2.1518   -0.9244 C   0  0  0  0  0  0  0  0  0  0  0  0
   -0.1480    2.0542    1.4865 C   0  0  0  0  0  0  0  0  0  0  0  0
   -1.4581   -1.4881   -1.1443 C   0  0  0  0  0  0  0  0  0  0  0  0
   -1.5821   -1.5888    1.2664 C   0  0  0  0  0  0  0  0  0  0  0  0
    1.3104    2.5390   -0.8416 C   0  0  0  0  0  0  0  0  0  0  0  0
    1.1894    2.4416    1.5693 C   0  0  0  0  0  0  0  0  0  0  0  0
    1.9187    2.6839    0.4052 C   0  0  0  0  0  0  0  0  0  0  0  0
   -6.5589    1.4244   -0.0772 C   0  0  0  0  0  0  0  0  0  0  0  0
   -0.6904   -2.6526   -1.1535 C   0  0  0  0  0  0  0  0  0  0  0  0
   -0.8143   -2.7533    1.2572 C   0  0  0  0  0  0  0  0  0  0  0  0
   -0.3684   -3.2851    0.0473 C   0  0  0  0  0  0  0  0  0  0  0  0
    4.1437    3.3569   -0.5607 C   0  0  0  0  0  0  0  0  0  0  0  0
    1.7568   -4.2859    0.1171 C   0  0  0  0  0  0  0  0  0  0  0  0
    5.5316    3.7496   -0.1189 C   0  0  0  0  0  0  0  0  0  0  0  0
    6.1327    3.2295    1.1525 C   0  0  0  0  0  0  0  0  0  0  0  0
    3.5776   -2.9334    0.2669 C   0  0  0  0  0  0  0  0  0  0  0  0
    6.2134    4.5910   -0.9130 C   0  0  0  0  0  0  0  0  0  0  0  0
    3.8112   -5.2562    0.1844 C   0  0  0  0  0  0  0  0  0  0  0  0
    4.4247   -4.0228    0.2668 C   0  0  0  0  0  0  0  0  0  0  0  0
    4.1490   -1.5581    0.3528 C   0  0  0  0  0  0  0  0  0  0  0  0
   -2.4372    4.1867   -0.6575 H   0  0  0  0  0  0  0  0  0  0  0  0
   -2.5241    4.1146    1.1392 H   0  0  0  0  0  0  0  0  0  0  0  0
   -4.0061    4.3396    0.1748 H   0  0  0  0  0  0  0  0  0  0  0  0
   -0.4882    2.0426   -1.9034 H   0  0  0  0  0  0  0  0  0  0  0  0
   -0.7029    1.8687    2.4031 H   0  0  0  0  0  0  0  0  0  0  0  0
   -1.7002   -1.0077   -2.0893 H   0  0  0  0  0  0  0  0  0  0  0  0
   -1.9221   -1.1875    2.2182 H   0  0  0  0  0  0  0  0  0  0  0  0
    1.8026    2.7064   -1.7886 H   0  0  0  0  0  0  0  0  0  0  0  0
    1.6505    2.5502    2.5477 H   0  0  0  0  0  0  0  0  0  0  0  0
   -7.5697    1.8162   -0.1139 H   0  0  0  0  0  0  0  0  0  0  0  0
   -0.5682   -3.2411    2.1966 H   0  0  0  0  0  0  0  0  0  0  0  0
   -5.8770   -2.4278   -0.1935 H   0  0  0  0  0  0  0  0  0  0  0  0
   -4.1383   -2.2787   -0.0977 H   0  0  0  0  0  0  0  0  0  0  0  0
    3.6125    3.1600    1.4364 H   0  0  0  0  0  0  0  0  0  0  0  0
    5.6705    3.7066    2.0224 H   0  0  0  0  0  0  0  0  0  0  0  0
    7.2107    3.4171    1.2036 H   0  0  0  0  0  0  0  0  0  0  0  0
    5.9869    2.1468    1.2271 H   0  0  0  0  0  0  0  0  0  0  0  0
    7.2163    4.9158   -0.6542 H   0  0  0  0  0  0  0  0  0  0  0  0
    5.7967    4.9864   -1.8336 H   0  0  0  0  0  0  0  0  0  0  0  0
    4.3951   -6.1704    0.1775 H   0  0  0  0  0  0  0  0  0  0  0  0
    5.5013   -3.9275    0.3268 H   0  0  0  0  0  0  0  0  0  0  0  0
    4.8106   -1.3661   -0.4979 H   0  0  0  0  0  0  0  0  0  0  0  0
    3.3571   -0.8016    0.3412 H   0  0  0  0  0  0  0  0  0  0  0  0
    4.7159   -1.4379    1.2815 H   0  0  0  0  0  0  0  0  0  0  0  0
  1 27  1  0  0  0  0
  2 29  1  0  0  0  0
  2 31  1  0  0  0  0
  3 30  2  0  0  0  0
  4 11  1  0  0  0  0
  4 14  1  0  0  0  0
  4 17  1  0  0  0  0
  5 14  2  0  0  0  0
  5 26  1  0  0  0  0
  6 18  1  0  0  0  0
  6 26  2  0  0  0  0
  7 18  1  0  0  0  0
  7 50  1  0  0  0  0
  7 51  1  0  0  0  0
  8 25  1  0  0  0  0
  8 30  1  0  0  0  0
  8 52  1  0  0  0  0
  9 31  1  0  0  0  0
  9 34  2  0  0  0  0
 10 31  2  0  0  0  0
 10 36  1  0  0  0  0
 11 12  2  0  0  0  0
 11 15  1  0  0  0  0
 12 13  1  0  0  0  0
 12 16  1  0  0  0  0
 13 14  1  0  0  0  0
 13 18  2  0  0  0  0
 15 19  2  0  0  0  0
 15 20  1  0  0  0  0
 16 21  2  0  0  0  0
 16 22  1  0  0  0  0
 17 39  1  0  0  0  0
 17 40  1  0  0  0  0
 17 41  1  0  0  0  0
 19 23  1  0  0  0  0
 19 42  1  0  0  0  0
 20 24  2  0  0  0  0
 20 43  1  0  0  0  0
 21 27  1  0  0  0  0
 21 44  1  0  0  0  0
 22 28  2  0  0  0  0
 22 45  1  0  0  0  0
 23 25  2  0  0  0  0
 23 46  1  0  0  0  0
 24 25  1  0  0  0  0
 24 47  1  0  0  0  0
 26 48  1  0  0  0  0
 27 29  2  0  0  0  0
 28 29  1  0  0  0  0
 28 49  1  0  0  0  0
 30 32  1  0  0  0  0
 32 33  1  0  0  0  0
 32 35  2  0  0  0  0
 33 53  1  0  0  0  0
 33 54  1  0  0  0  0
 33 55  1  0  0  0  0
 34 37  1  0  0  0  0
 34 38  1  0  0  0  0
 35 56  1  0  0  0  0
 35 57  1  0  0  0  0
 36 37  2  0  0  0  0
 36 58  1  0  0  0  0
 37 59  1  0  0  0  0
 38 60  1  0  0  0  0
 38 61  1  0  0  0  0
 38 62  1  0  0  0  0
M  END
> <PUBCHEM_COMPOUND_CID>
155309155

> <PUBCHEM_CONFORMER_RMSD>
1

> <PUBCHEM_CONFORMER_DIVERSEORDER>
1
12
29
28
6
22
20
2
18
15
33
24
17
14
16
13
31
7
3
10
21
26
32
27
30
11
25
23
19
5
9
4
8

> <PUBCHEM_MMFF94_PARTIAL_CHARGES>
52
1 -0.19
10 -0.62
11 -0.2
12 -0.05
14 0.11
15 0.05
16 0.05
17 0.26
18 0.41
19 -0.15
2 -0.17
20 -0.15
21 -0.15
22 -0.15
23 -0.15
24 -0.15
25 0.12
26 0.47
27 0.19
28 -0.15
29 0.08
3 -0.57
30 0.62
31 0.7
32 -0.12
33 0.14
34 0.17
35 -0.3
36 0.16
37 -0.15
38 0.14
4 0.05
42 0.15
43 0.15
44 0.15
45 0.15
46 0.15
47 0.15
48 0.15
49 0.15
5 -0.57
50 0.4
51 0.4
52 0.37
56 0.15
57 0.15
58 0.15
59 0.15
6 -0.62
7 -0.9
8 -0.55
9 -0.62

> <PUBCHEM_EFFECTIVE_ROTOR_COUNT>
7

> <PUBCHEM_PHARMACOPHORE_FEATURES>
13
1 3 acceptor
1 7 cation
1 7 donor
1 8 donor
1 9 acceptor
3 4 5 14 cation
3 5 6 26 cation
3 9 10 31 cation
5 4 11 12 13 14 rings
6 15 19 20 23 24 25 rings
6 16 21 22 27 28 29 rings
6 5 6 13 14 18 26 rings
6 9 10 31 34 36 37 rings

> <PUBCHEM_HEAVY_ATOM_COUNT>
38

> <PUBCHEM_ATOM_DEF_STEREO_COUNT>
0

> <PUBCHEM_ATOM_UDEF_STEREO_COUNT>
0

> <PUBCHEM_BOND_DEF_STEREO_COUNT>
0

> <PUBCHEM_BOND_UDEF_STEREO_COUNT>
0

> <PUBCHEM_ISOTOPIC_ATOM_COUNT>
0

> <PUBCHEM_COMPONENT_COUNT>
1

> <PUBCHEM_CACTVS_TAUTO_COUNT>
-1

> <PUBCHEM_CONFORMER_ID>
0941D46300000001

> <PUBCHEM_MMFF94_ENERGY>
117.1423

> <PUBCHEM_FEATURE_SELFOVERLAP>
66.251

> <PUBCHEM_SHAPE_FINGERPRINT>
10032420 55 17026563560579919953
10190108 129 17834963345486991403
11136131 41 18334566971512618730
11763715 3 17402076408461756839
12156800 1 15575863748637277563
12166972 35 17607823702751267511
12522641 126 18411408510904776255
12660671 118 17897700142409082947
12977781 61 17895779360468436355
13560911 43 17756146687999854818
1361 2 18337673019046445618
14028597 1 17774179971332247049
140371 6 17911241611958836977
14394314 77 17834402216176937320
14415361 192 17025709249067686514
14444916 359 18194985133964644336
14659021 117 17331391486113892816
14844126 61 17831863825458104128
14937079 2 17619633480242382585
15297060 5 18200025287599556432
15320467 1 18266458711682943962
15400415 2 18265897041488196476
15439362 3 18335981991717409721
15444296 8 16882121890654989408
15927050 60 18269554004028805895
15961568 22 17908707220203215902
16090146 7 18124056743028166905
16719943 64 18194682802716343500
17627616 140 18411699923813505782
19311894 1 17257370177536407250
19319366 153 18341330093462848612
19611394 137 18189634751929812571
21133410 221 16178976349746187258
21133410 230 17610381420200688067
21133665 82 18339083817151354764
21792965 2 18041554870762894931
21796203 349 17547053686377440162
22311459 1 17762336913348147633
23516275 137 18261970595824282792
23523788 1 17317926716380229235
23559900 14 18196920094916636201
23569943 247 14688966806630342700
24771750 20 18410859833053833005
3298306 158 18341617074049250421
3383291 50 17907013237830178619
4017518 198 18265617757133775924
463206 1 17759814649466041400
469060 322 17835527016086895346
49967989 163 17616830159973770124
5085150 59 18266169729156193352
5265222 85 18050569839492303520
5776283 40 18337966653560932774
6176135 31 18338222835327817480
6669772 16 18410857693701066557
9961470 85 18339359786174845690
9981440 41 18191312769660034971

> <PUBCHEM_SHAPE_MULTIPOLES>
728.14
13.16
8.84
1.19
2.39
7.43
-0.15
-12.11
-0.48
-15.34
-0.44
-0.57
-0.2
-1.19

> <PUBCHEM_SHAPE_SELFOVERLAP>
1617.554

> <PUBCHEM_SHAPE_VOLUME>
390.8

> <PUBCHEM_COORDINATE_TYPE>
2
5
10

$$$$
156538665
  -OEChem-11282412143D

 76 80  0     1  0  0  0  0  0999 V2000
   -1.1571    5.6570    0.1785 S   0  0  0  0  0  0  0  0  0  0  0  0
    4.6896    0.9212   -1.8912 F   0  0  0  0  0  0  0  0  0  0  0  0
   -2.0629    6.6926    0.6501 O   0  0  0  0  0  0  0  0  0  0  0  0
   -0.4022    4.8521    1.1261 O   0  0  0  0  0  0  0  0  0  0  0  0
    6.4888    2.3893   -0.4390 O   0  0  0  0  0  0  0  0  0  0  0  0
   -3.2904    1.8079   -0.2621 N   0  0  2  0  0  0  0  0  0  0  0  0
    4.3004   -1.1384    0.0763 N   0  0  0  0  0  0  0  0  0  0  0  0
   -0.3260   -1.2304   -0.0474 N   0  0  0  0  0  0  0  0  0  0  0  0
    0.2330   -3.5292    0.0687 N   0  0  0  0  0  0  0  0  0  0  0  0
    2.2732   -2.3012    0.0712 N   0  0  0  0  0  0  0  0  0  0  0  0
    4.3767   -3.4719    0.1811 N   0  0  0  0  0  0  0  0  0  0  0  0
   -3.1118    3.8259   -0.0826 C   0  0  2  0  0  0  0  0  0  0  0  0
   -2.6128    2.5882    0.6990 C   0  0  1  0  0  0  0  0  0  0  0  0
   -3.9947    2.8552   -0.8846 C   0  0  0  0  0  0  0  0  0  0  0  0
   -2.0549    4.5731   -0.8797 C   0  0  0  0  0  0  0  0  0  0  0  0
   -3.1540    2.4368    2.1106 C   0  0  0  0  0  0  0  0  0  0  0  0
   -3.6416    0.4380   -0.2118 C   0  0  0  0  0  0  0  0  0  0  0  0
   -2.6643   -0.5685   -0.1408 C   0  0  0  0  0  0  0  0  0  0  0  0
   -4.9955    0.1040   -0.2346 C   0  0  0  0  0  0  0  0  0  0  0  0
    0.0137    6.4302   -0.9158 C   0  0  0  0  0  0  0  0  0  0  0  0
   -3.0548   -1.9228   -0.0922 C   0  0  0  0  0  0  0  0  0  0  0  0
   -4.4225   -2.2410   -0.1160 C   0  0  0  0  0  0  0  0  0  0  0  0
   -5.3851   -1.2325   -0.1868 C   0  0  0  0  0  0  0  0  0  0  0  0
   -1.2961   -0.2911   -0.1152 C   0  0  0  0  0  0  0  0  0  0  0  0
   -4.9082   -3.6562   -0.0674 C   0  0  0  0  0  0  0  0  0  0  0  0
   -2.0657   -2.9109   -0.0217 C   0  0  0  0  0  0  0  0  0  0  0  0
    5.7004    1.3794    0.1777 C   0  0  1  0  0  0  0  0  0  0  0  0
    4.3976    1.2292   -0.5933 C   0  0  2  0  0  0  0  0  0  0  0  0
    6.4580    0.0574    0.1941 C   0  0  0  0  0  0  0  0  0  0  0  0
   -0.7367   -2.5157   -0.0024 C   0  0  0  0  0  0  0  0  0  0  0  0
    3.5308    0.1094   -0.0282 C   0  0  0  0  0  0  0  0  0  0  0  0
    5.5989   -1.0687    0.7631 C   0  0  0  0  0  0  0  0  0  0  0  0
   -5.6880   -4.0488   -1.3341 C   0  0  0  0  0  0  0  0  0  0  0  0
   -5.7574   -3.9390    1.1838 C   0  0  0  0  0  0  0  0  0  0  0  0
    3.6180   -2.3615    0.1112 C   0  0  0  0  0  0  0  0  0  0  0  0
    1.6485   -3.4966    0.1065 C   0  0  0  0  0  0  0  0  0  0  0  0
    7.4576    2.9145    0.4581 C   0  0  0  0  0  0  0  0  0  0  0  0
    2.3100   -4.7056    0.1778 C   0  0  0  0  0  0  0  0  0  0  0  0
    3.6875   -4.6312    0.2128 C   0  0  0  0  0  0  0  0  0  0  0  0
   -3.7264    4.5151    0.5131 H   0  0  0  0  0  0  0  0  0  0  0  0
   -1.5272    2.4655    0.6762 H   0  0  0  0  0  0  0  0  0  0  0  0
   -5.0545    2.9169   -0.6221 H   0  0  0  0  0  0  0  0  0  0  0  0
   -3.8732    2.8707   -1.9708 H   0  0  0  0  0  0  0  0  0  0  0  0
   -2.5257    5.1938   -1.6488 H   0  0  0  0  0  0  0  0  0  0  0  0
   -1.3446    3.8933   -1.3603 H   0  0  0  0  0  0  0  0  0  0  0  0
   -2.8799    1.4647    2.5336 H   0  0  0  0  0  0  0  0  0  0  0  0
   -4.2449    2.5305    2.1480 H   0  0  0  0  0  0  0  0  0  0  0  0
   -2.7312    3.2090    2.7620 H   0  0  0  0  0  0  0  0  0  0  0  0
   -5.7728    0.8608   -0.2787 H   0  0  0  0  0  0  0  0  0  0  0  0
    0.6174    7.1269   -0.3307 H   0  0  0  0  0  0  0  0  0  0  0  0
   -0.5329    6.9682   -1.6923 H   0  0  0  0  0  0  0  0  0  0  0  0
    0.6498    5.6581   -1.3523 H   0  0  0  0  0  0  0  0  0  0  0  0
   -6.4472   -1.4609   -0.2039 H   0  0  0  0  0  0  0  0  0  0  0  0
   -0.8918    0.7091   -0.1951 H   0  0  0  0  0  0  0  0  0  0  0  0
   -4.0980   -4.3815   -0.0134 H   0  0  0  0  0  0  0  0  0  0  0  0
   -2.2725   -3.9717    0.0182 H   0  0  0  0  0  0  0  0  0  0  0  0
    5.4516    1.6781    1.2054 H   0  0  0  0  0  0  0  0  0  0  0  0
    3.8469    2.1754   -0.6140 H   0  0  0  0  0  0  0  0  0  0  0  0
    7.3776    0.1354    0.7835 H   0  0  0  0  0  0  0  0  0  0  0  0
    6.7779   -0.1951   -0.8256 H   0  0  0  0  0  0  0  0  0  0  0  0
    3.1416    0.3855    0.9590 H   0  0  0  0  0  0  0  0  0  0  0  0
    2.6826   -0.0160   -0.7118 H   0  0  0  0  0  0  0  0  0  0  0  0
    6.1750   -1.9952    0.6583 H   0  0  0  0  0  0  0  0  0  0  0  0
    5.4306   -0.9091    1.8355 H   0  0  0  0  0  0  0  0  0  0  0  0
   -6.6187   -3.4816   -1.4404 H   0  0  0  0  0  0  0  0  0  0  0  0
   -5.0841   -3.8762   -2.2320 H   0  0  0  0  0  0  0  0  0  0  0  0
   -5.9524   -5.1118   -1.3081 H   0  0  0  0  0  0  0  0  0  0  0  0
   -6.6913   -3.3671    1.1889 H   0  0  0  0  0  0  0  0  0  0  0  0
   -6.0223   -5.0009    1.2361 H   0  0  0  0  0  0  0  0  0  0  0  0
   -5.2035   -3.6872    2.0951 H   0  0  0  0  0  0  0  0  0  0  0  0
   -0.1507   -4.4630    0.1870 H   0  0  0  0  0  0  0  0  0  0  0  0
    7.9788    3.7308   -0.0504 H   0  0  0  0  0  0  0  0  0  0  0  0
    6.9809    3.3233    1.3546 H   0  0  0  0  0  0  0  0  0  0  0  0
    8.2012    2.1620    0.7317 H   0  0  0  0  0  0  0  0  0  0  0  0
    1.7991   -5.6600    0.2051 H   0  0  0  0  0  0  0  0  0  0  0  0
    4.2936   -5.5292    0.2691 H   0  0  0  0  0  0  0  0  0  0  0  0
  1  3  2  0  0  0  0
  1  4  2  0  0  0  0
  1 15  1  0  0  0  0
  1 20  1  0  0  0  0
  2 28  1  0  0  0  0
  5 27  1  0  0  0  0
  5 37  1  0  0  0  0
  6 13  1  0  0  0  0
  6 14  1  0  0  0  0
  6 17  1  0  0  0  0
  7 31  1  0  0  0  0
  7 32  1  0  0  0  0
  7 35  1  0  0  0  0
  8 24  2  0  0  0  0
  8 30  1  0  0  0  0
  9 30  1  0  0  0  0
  9 36  1  0  0  0  0
  9 71  1  0  0  0  0
 10 35  1  0  0  0  0
 10 36  2  0  0  0  0
 11 35  2  0  0  0  0
 11 39  1  0  0  0  0
 12 13  1  0  0  0  0
 12 14  1  0  0  0  0
 12 15  1  0  0  0  0
 12 40  1  0  0  0  0
 13 16  1  0  0  0  0
 13 41  1  0  0  0  0
 14 42  1  0  0  0  0
 14 43  1  0  0  0  0
 15 44  1  0  0  0  0
 15 45  1  0  0  0  0
 16 46  1  0  0  0  0
 16 47  1  0  0  0  0
 16 48  1  0  0  0  0
 17 18  2  0  0  0  0
 17 19  1  0  0  0  0
 18 21  1  0  0  0  0
 18 24  1  0  0  0  0
 19 23  2  0  0  0  0
 19 49  1  0  0  0  0
 20 50  1  0  0  0  0
 20 51  1  0  0  0  0
 20 52  1  0  0  0  0
 21 22  2  0  0  0  0
 21 26  1  0  0  0  0
 22 23  1  0  0  0  0
 22 25  1  0  0  0  0
 23 53  1  0  0  0  0
 24 54  1  0  0  0  0
 25 33  1  0  0  0  0
 25 34  1  0  0  0  0
 25 55  1  0  0  0  0
 26 30  2  0  0  0  0
 26 56  1  0  0  0  0
 27 28  1  0  0  0  0
 27 29  1  0  0  0  0
 27 57  1  0  0  0  0
 28 31  1  0  0  0  0
 28 58  1  0  0  0  0
 29 32  1  0  0  0  0
 29 59  1  0  0  0  0
 29 60  1  0  0  0  0
 31 61  1  0  0  0  0
 31 62  1  0  0  0  0
 32 63  1  0  0  0  0
 32 64  1  0  0  0  0
 33 65  1  0  0  0  0
 33 66  1  0  0  0  0
 33 67  1  0  0  0  0
 34 68  1  0  0  0  0
 34 69  1  0  0  0  0
 34 70  1  0  0  0  0
 36 38  1  0  0  0  0
 37 72  1  0  0  0  0
 37 73  1  0  0  0  0
 37 74  1  0  0  0  0
 38 39  2  0  0  0  0
 38 75  1  0  0  0  0
 39 76  1  0  0  0  0
M  END
> <PUBCHEM_COMPOUND_CID>
156538665

> <PUBCHEM_CONFORMER_RMSD>
1.2

> <PUBCHEM_CONFORMER_DIVERSEORDER>
1
88
35
76
85
93
108
74
51
67
23
42
65
60
99
69
29
98
84
48
90
75
57
97
78
38
100
71
14
52
11
80
92
106
103
58
81
54
39
56
96
45
101
31
46
49
72
55
105
43
87
64
110
41
27
50
28
70
32
82
66
95
15
68
8
10
91
12
94
22
61
13
26
104
59
77
25
47
86
3
109
63
111
36
83
53
62
89
33
9
40
2
107
79
24
21
7
30
102
6
73
18
4
44
37
34
19
20
16
17
5

> <PUBCHEM_MMFF94_PARTIAL_CHARGES>
39
1 1.09
10 -0.62
11 -0.62
13 0.25
14 0.25
15 0.11
17 0.1
19 -0.15
2 -0.34
20 0.11
22 -0.14
23 -0.15
24 0.16
25 0.14
26 -0.15
27 0.28
28 0.34
3 -0.65
30 0.41
31 0.37
32 0.37
35 0.72
36 0.41
37 0.28
38 -0.15
39 0.16
4 -0.65
49 0.15
5 -0.56
53 0.15
54 0.15
56 0.15
6 -0.59
7 -0.84
71 0.4
75 0.15
76 0.15
8 -0.62
9 -0.6

> <PUBCHEM_EFFECTIVE_ROTOR_COUNT>
10

> <PUBCHEM_PHARMACOPHORE_FEATURES>
13
1 3 acceptor
1 4 acceptor
1 5 acceptor
1 6 cation
1 8 acceptor
1 9 donor
3 25 33 34 hydrophobe
4 6 12 13 14 rings
4 7 10 11 35 cation
6 10 11 35 36 38 39 rings
6 17 18 19 21 22 23 rings
6 7 27 28 29 31 32 rings
6 8 18 21 24 26 30 rings

> <PUBCHEM_HEAVY_ATOM_COUNT>
39

> <PUBCHEM_ATOM_DEF_STEREO_COUNT>
4

> <PUBCHEM_ATOM_UDEF_STEREO_COUNT>
0

> <PUBCHEM_BOND_DEF_STEREO_COUNT>
0

> <PUBCHEM_BOND_UDEF_STEREO_COUNT>
0

> <PUBCHEM_ISOTOPIC_ATOM_COUNT>
0

> <PUBCHEM_COMPONENT_COUNT>
1

> <PUBCHEM_CACTVS_TAUTO_COUNT>
-1

> <PUBCHEM_CONFORMER_ID>
0954972900000001

> <PUBCHEM_MMFF94_ENERGY>
144.0827

> <PUBCHEM_FEATURE_SELFOVERLAP>
66.017

> <PUBCHEM_SHAPE_FINGERPRINT>
10050765 1 18337952281788931734
10439779 11 17832977249065265442
10951579 204 18338817671540769204
11331860 1 18410291437177903780
11763389 116 15960048818400580387
12107183 9 17325761479431290827
12925494 130 18193552260013189889
13347071 3 18195808471238154238
13560911 23 18042956593775824898
13560911 43 18192144017788771768
13617811 41 18194671781767263891
14068700 686 18412546522282159814
14394314 77 18339647832056185689
14615647 1 18340471315443454880
14790565 3 17617939128443739211
14932702 115 17915170214049483856
15001296 14 18266459806804652680
15064981 194 18191882123731461149
15289351 153 18411411835795252850
15320291 9 18262800640744964188
15320467 1 17473544028685863660
15347590 135 18041568064950089387
15406563 228 17835804093644751080
15419008 145 18335405852388473210
15538507 32 17905612455652560492
16990350 14 18337955576909237728
17844677 252 18339083666158086243
18608769 82 18268148845396142394
19611394 137 17753339964946460451
22311459 1 18194402427631815855
23559900 14 17838894837241210798
241686 156 17832149316725706164
3103668 31 16103893891993607558
3388396 114 18268972306568998652
3493558 16 18193840349228772702
4144715 1 18193845833919061706
4487111 67 18410854343975397664
469060 322 18339376256878508985
550186 72 18410854382418418269
6036956 94 18337392613100880117
6371009 1 18262796410328408254
6608658 132 18270955868406028310
6700243 42 17914644780297309127
9961470 85 18121772833869924716

> <PUBCHEM_SHAPE_MULTIPOLES>
751.68
16.01
10.5
1.03
20.11
13.47
0.12
-5.48
-0.2
-5.08
0.24
-0.56
0.57
-0.91

> <PUBCHEM_SHAPE_SELFOVERLAP>
1600.145

> <PUBCHEM_SHAPE_VOLUME>
425.9

> <PUBCHEM_COORDINATE_TYPE>
2
5
10

$$$$
75593308
  -OEChem-11282412143D

 42 45  0     0  0  0  0  0  0999 V2000
    2.6407    1.4376    0.0751 O   0  0  0  0  0  0  0  0  0  0  0  0
   -3.1306   -1.3263   -0.0931 N   0  0  0  0  0  0  0  0  0  0  0  0
    2.2977   -0.8839   -0.0784 N   0  0  0  0  0  0  0  0  0  0  0  0
   -1.0249   -2.4934   -0.1768 N   0  0  0  0  0  0  0  0  0  0  0  0
    6.3610   -0.9456   -0.0276 N   0  0  0  0  0  0  0  0  0  0  0  0
    5.0327   -1.1479   -0.0560 N   0  0  0  0  0  0  0  0  0  0  0  0
   -1.2921   -0.0614   -0.0129 C   0  0  0  0  0  0  0  0  0  0  0  0
   -3.5498   -0.0242   -0.0038 C   0  0  0  0  0  0  0  0  0  0  0  0
   -1.7613   -1.3687   -0.0995 C   0  0  0  0  0  0  0  0  0  0  0  0
   -2.4331    0.7820    0.0469 C   0  0  0  0  0  0  0  0  0  0  0  0
    0.0994    0.1266   -0.0042 C   0  0  0  0  0  0  0  0  0  0  0  0
    0.9094   -1.0049   -0.0821 C   0  0  0  0  0  0  0  0  0  0  0  0
   -4.9489    0.3278    0.0223 C   0  0  0  0  0  0  0  0  0  0  0  0
    5.5391    1.0754    0.0776 C   0  0  0  0  0  0  0  0  0  0  0  0
    4.5359    0.0902    0.0086 C   0  0  0  0  0  0  0  0  0  0  0  0
    6.7167    0.3688    0.0523 C   0  0  0  0  0  0  0  0  0  0  0  0
    0.3068   -2.2531   -0.1640 C   0  0  0  0  0  0  0  0  0  0  0  0
    3.0628    0.2888   -0.0028 C   0  0  0  0  0  0  0  0  0  0  0  0
   -5.3705    1.5499   -0.5016 C   0  0  0  0  0  0  0  0  0  0  0  0
   -5.8797   -0.5539    0.5714 C   0  0  0  0  0  0  0  0  0  0  0  0
    5.3720    2.5369    0.1597 C   0  0  0  0  0  0  0  0  0  0  0  0
    8.1261    0.7940    0.0957 C   0  0  0  0  0  0  0  0  0  0  0  0
   -6.7231    1.8903   -0.4763 C   0  0  0  0  0  0  0  0  0  0  0  0
   -7.2323   -0.2137    0.5967 C   0  0  0  0  0  0  0  0  0  0  0  0
   -7.6540    1.0084    0.0728 C   0  0  0  0  0  0  0  0  0  0  0  0
   -2.4265    1.8613    0.1238 H   0  0  0  0  0  0  0  0  0  0  0  0
   -3.7272   -2.1395   -0.1595 H   0  0  0  0  0  0  0  0  0  0  0  0
    0.4606    1.1413    0.0628 H   0  0  0  0  0  0  0  0  0  0  0  0
    2.8117   -1.7608   -0.1344 H   0  0  0  0  0  0  0  0  0  0  0  0
    0.9128   -3.1543   -0.2260 H   0  0  0  0  0  0  0  0  0  0  0  0
    6.9682   -1.7549   -0.0661 H   0  0  0  0  0  0  0  0  0  0  0  0
    4.8160    2.8132    1.0614 H   0  0  0  0  0  0  0  0  0  0  0  0
    4.8296    2.9146   -0.7131 H   0  0  0  0  0  0  0  0  0  0  0  0
    6.3359    3.0549    0.1966 H   0  0  0  0  0  0  0  0  0  0  0  0
   -4.6681    2.2529   -0.9425 H   0  0  0  0  0  0  0  0  0  0  0  0
   -5.5838   -1.5080    1.0003 H   0  0  0  0  0  0  0  0  0  0  0  0
    8.3315    1.3472    1.0178 H   0  0  0  0  0  0  0  0  0  0  0  0
    8.8115   -0.0590    0.0574 H   0  0  0  0  0  0  0  0  0  0  0  0
    8.3559    1.4464   -0.7529 H   0  0  0  0  0  0  0  0  0  0  0  0
   -7.0519    2.8411   -0.8856 H   0  0  0  0  0  0  0  0  0  0  0  0
   -7.9571   -0.8987    1.0269 H   0  0  0  0  0  0  0  0  0  0  0  0
   -8.7070    1.2735    0.0928 H   0  0  0  0  0  0  0  0  0  0  0  0
  1 18  2  0  0  0  0
  2  8  1  0  0  0  0
  2  9  1  0  0  0  0
  2 27  1  0  0  0  0
  3 12  1  0  0  0  0
  3 18  1  0  0  0  0
  3 29  1  0  0  0  0
  4  9  2  0  0  0  0
  4 17  1  0  0  0  0
  5  6  1  0  0  0  0
  5 16  1  0  0  0  0
  5 31  1  0  0  0  0
  6 15  2  0  0  0  0
  7  9  1  0  0  0  0
  7 10  1  0  0  0  0
  7 11  2  0  0  0  0
  8 10  2  0  0  0  0
  8 13  1  0  0  0  0
 10 26  1  0  0  0  0
 11 12  1  0  0  0  0
 11 28  1  0  0  0  0
 12 17  2  0  0  0  0
 13 19  2  0  0  0  0
 13 20  1  0  0  0  0
 14 15  1  0  0  0  0
 14 16  2  0  0  0  0
 14 21  1  0  0  0  0
 15 18  1  0  0  0  0
 16 22  1  0  0  0  0
 17 30  1  0  0  0  0
 19 23  1  0  0  0  0
 19 35  1  0  0  0  0
 20 24  2  0  0  0  0
 20 36  1  0  0  0  0
 21 32  1  0  0  0  0
 21 33  1  0  0  0  0
 21 34  1  0  0  0  0
 22 37  1  0  0  0  0
 22 38  1  0  0  0  0
 22 39  1  0  0  0  0
 23 25  2  0  0  0  0
 23 40  1  0  0  0  0
 24 25  1  0  0  0  0
 24 41  1  0  0  0  0
 25 42  1  0  0  0  0
M  END
> <PUBCHEM_COMPOUND_CID>
75593308

> <PUBCHEM_CONFORMER_RMSD>
0.8

> <PUBCHEM_CONFORMER_DIVERSEORDER>
1
12
7
8
2
11
10
4
9
5
6
3

> <PUBCHEM_MMFF94_PARTIAL_CHARGES>
35
1 -0.57
10 -0.15
11 -0.15
12 0.12
13 0.05
14 -0.18
15 0.2
16 -0.33
17 0.16
18 0.72
19 -0.15
2 0.03
20 -0.15
21 0.18
22 0.18
23 -0.15
24 -0.15
25 -0.15
26 0.15
27 0.27
28 0.15
29 0.37
3 -0.55
30 0.15
31 0.27
35 0.15
36 0.15
4 -0.57
40 0.15
41 0.15
42 0.15
5 0.3
6 -0.71
8 -0.2
9 0.11

> <PUBCHEM_EFFECTIVE_ROTOR_COUNT>
4

> <PUBCHEM_PHARMACOPHORE_FEATURES>
10
1 1 acceptor
1 2 donor
1 3 donor
1 5 donor
1 6 acceptor
3 2 4 9 cation
5 2 7 8 9 10 rings
5 5 6 14 15 16 rings
6 13 19 20 23 24 25 rings
6 4 7 9 11 12 17 rings

> <PUBCHEM_HEAVY_ATOM_COUNT>
25

> <PUBCHEM_ATOM_DEF_STEREO_COUNT>
0

> <PUBCHEM_ATOM_UDEF_STEREO_COUNT>
0

> <PUBCHEM_BOND_DEF_STEREO_COUNT>
0

> <PUBCHEM_BOND_UDEF_STEREO_COUNT>
0

> <PUBCHEM_ISOTOPIC_ATOM_COUNT>
0

> <PUBCHEM_COMPONENT_COUNT>
1

> <PUBCHEM_CACTVS_TAUTO_COUNT>
23

> <PUBCHEM_CONFORMER_ID>
0481765C00000001

> <PUBCHEM_MMFF94_ENERGY>
53.6565

> <PUBCHEM_FEATURE_SELFOVERLAP>
50.86

> <PUBCHEM_SHAPE_FINGERPRINT>
10 15 18259706701118576651
10050765 1 18122906701072313768
10411042 1 17833833051791895947
106641 1 17967537887443640315
10670039 82 17703792479495871689
10835480 77 18263077722619042693
11315181 36 17489591194449318859
12236239 1 18186238428713214363
125118 31 18261114062521804724
12838862 33 18339907269160029120
13533116 47 17274824598062286598
13673619 4 11818991885789405342
13968360 50 16200155361467574478
14251764 18 18187081763106657926
14251764 46 17458345243178433137
14933364 13 18408041814273353249
15183329 4 17561366175196542088
15419008 145 18042674032335528176
15716309 27 11602543126182741601
1577012 14 18412536626693360158
15849732 13 18260831500912502461
16989713 51 17416677150343737367
18335252 114 18342167856645685205
18608769 82 18340488958852218155
19611394 137 17896896528912338441
20157964 124 18202004305160232526
20281389 69 18334575741518968137
20554085 129 17774707711297178298
21033648 29 18269544096082170440
21150785 3 13973965406807358880
21236236 1 18342174531415435127
21585482 111 18193558874965407197
22224240 67 14996003259204838008
22288116 15 17417517112759897015
22956985 138 12975537299496962424
23198884 109 15769779048488221571
23559900 14 18059850718816159144
249057 3 18343022220683722580
2838139 119 18341606031825729709
3004659 81 18410293619305061544
335352 9 18412544335885070780
3411729 13 18261954050861606586
350125 39 18410291393499522509
3545911 37 18411418405786628806
397830 11 16371869506681640641
4073 2 17968381264122528306
4340502 62 16950282892603736146
437795 83 18265883684873129893
5104073 3 18262230157809049642
5385378 56 18187923933300876818
5758199 1 18341335522443773131
59682541 35 18260557740762464571
59755656 215 18340489967378177102
59755656 520 18040431114287370691
6669772 16 17917154909805079943

> <PUBCHEM_SHAPE_MULTIPOLES>
483.71
23.38
2.05
0.65
4.6
0.12
-0.01
-11
-1.39
0.23
0.15
-0.33
-0.04
0.67

> <PUBCHEM_SHAPE_SELFOVERLAP>
1079.214

> <PUBCHEM_SHAPE_VOLUME>
257

> <PUBCHEM_COORDINATE_TYPE>
2
5
10

$$$$
24864821
  -OEChem-11282412143D

 46 50  0     0  0  0  0  0  0999 V2000
    0.2297    2.7213    0.3985 O   0  0  0  0  0  0  0  0  0  0  0  0
    4.0625   -2.3502    1.0345 O   0  0  0  0  0  0  0  0  0  0  0  0
   -2.4997    1.2750    0.0227 N   0  0  0  0  0  0  0  0  0  0  0  0
   -1.7860    0.1768   -0.3304 N   0  0  0  0  0  0  0  0  0  0  0  0
   -3.0607    3.3662    0.3629 N   0  0  0  0  0  0  0  0  0  0  0  0
   -4.1183    2.5684    0.7505 N   0  0  0  0  0  0  0  0  0  0  0  0
    4.0662    1.9633   -0.9803 N   0  0  0  0  0  0  0  0  0  0  0  0
   -2.1028    2.5772   -0.0682 C   0  0  0  0  0  0  0  0  0  0  0  0
   -0.7588    2.9895   -0.5926 C   0  0  0  0  0  0  0  0  0  0  0  0
    2.1218    1.2307    0.2403 C   0  0  0  0  0  0  0  0  0  0  0  0
   -3.7727    1.3156    0.5425 C   0  0  0  0  0  0  0  0  0  0  0  0
    1.4914    2.4495   -0.0443 C   0  0  0  0  0  0  0  0  0  0  0  0
   -2.4205   -0.9455   -0.1425 C   0  0  0  0  0  0  0  0  0  0  0  0
    3.4271    1.0268   -0.2541 C   0  0  0  0  0  0  0  0  0  0  0  0
   -4.4273    0.0857    0.7507 C   0  0  0  0  0  0  0  0  0  0  0  0
   -1.7451   -2.2216   -0.4951 C   0  0  0  0  0  0  0  0  0  0  0  0
   -3.8010   -1.0540    0.4308 C   0  0  0  0  0  0  0  0  0  0  0  0
    1.4847    0.2312    0.9951 C   0  0  0  0  0  0  0  0  0  0  0  0
    4.0529   -0.1842    0.0289 C   0  0  0  0  0  0  0  0  0  0  0  0
    2.1474    3.4165   -0.7924 C   0  0  0  0  0  0  0  0  0  0  0  0
    3.4196   -1.1781    0.7793 C   0  0  0  0  0  0  0  0  0  0  0  0
    2.1340   -0.9704    1.2632 C   0  0  0  0  0  0  0  0  0  0  0  0
    3.4227    3.1261   -1.2328 C   0  0  0  0  0  0  0  0  0  0  0  0
   -2.0337   -3.3850    0.2182 C   0  0  0  0  0  0  0  0  0  0  0  0
   -0.8230   -2.2557   -1.5412 C   0  0  0  0  0  0  0  0  0  0  0  0
   -1.4005   -4.5825   -0.1146 C   0  0  0  0  0  0  0  0  0  0  0  0
   -0.1898   -3.4532   -1.8741 C   0  0  0  0  0  0  0  0  0  0  0  0
   -0.4785   -4.6166   -1.1608 C   0  0  0  0  0  0  0  0  0  0  0  0
    3.3581   -3.3228    1.8052 C   0  0  0  0  0  0  0  0  0  0  0  0
   -0.5486    2.4532   -1.5270 H   0  0  0  0  0  0  0  0  0  0  0  0
   -0.7681    4.0649   -0.8035 H   0  0  0  0  0  0  0  0  0  0  0  0
   -5.4344    0.0737    1.1518 H   0  0  0  0  0  0  0  0  0  0  0  0
   -4.3026   -2.0054    0.5450 H   0  0  0  0  0  0  0  0  0  0  0  0
    0.4830    0.3770    1.3916 H   0  0  0  0  0  0  0  0  0  0  0  0
    5.0606   -0.3656   -0.3420 H   0  0  0  0  0  0  0  0  0  0  0  0
    1.6927    4.3732   -1.0231 H   0  0  0  0  0  0  0  0  0  0  0  0
    1.5817   -1.6949    1.8515 H   0  0  0  0  0  0  0  0  0  0  0  0
    3.9854    3.8445   -1.8199 H   0  0  0  0  0  0  0  0  0  0  0  0
   -2.7164   -3.3959    1.0622 H   0  0  0  0  0  0  0  0  0  0  0  0
   -0.5866   -1.3631   -2.1143 H   0  0  0  0  0  0  0  0  0  0  0  0
   -1.6184   -5.4869    0.4461 H   0  0  0  0  0  0  0  0  0  0  0  0
    0.5281   -3.4799   -2.6886 H   0  0  0  0  0  0  0  0  0  0  0  0
    0.0163   -5.5484   -1.4185 H   0  0  0  0  0  0  0  0  0  0  0  0
    4.0169   -4.1909    1.9105 H   0  0  0  0  0  0  0  0  0  0  0  0
    2.4550   -3.6673    1.2898 H   0  0  0  0  0  0  0  0  0  0  0  0
    3.1453   -2.9581    2.8159 H   0  0  0  0  0  0  0  0  0  0  0  0
  1  9  1  0  0  0  0
  1 12  1  0  0  0  0
  2 21  1  0  0  0  0
  2 29  1  0  0  0  0
  3  4  1  0  0  0  0
  3  8  1  0  0  0  0
  3 11  1  0  0  0  0
  4 13  2  0  0  0  0
  5  6  1  0  0  0  0
  5  8  2  0  0  0  0
  6 11  2  0  0  0  0
  7 14  2  0  0  0  0
  7 23  1  0  0  0  0
  8  9  1  0  0  0  0
  9 30  1  0  0  0  0
  9 31  1  0  0  0  0
 10 12  2  0  0  0  0
 10 14  1  0  0  0  0
 10 18  1  0  0  0  0
 11 15  1  0  0  0  0
 12 20  1  0  0  0  0
 13 16  1  0  0  0  0
 13 17  1  0  0  0  0
 14 19  1  0  0  0  0
 15 17  2  0  0  0  0
 15 32  1  0  0  0  0
 16 24  2  0  0  0  0
 16 25  1  0  0  0  0
 17 33  1  0  0  0  0
 18 22  2  0  0  0  0
 18 34  1  0  0  0  0
 19 21  2  0  0  0  0
 19 35  1  0  0  0  0
 20 23  2  0  0  0  0
 20 36  1  0  0  0  0
 21 22  1  0  0  0  0
 22 37  1  0  0  0  0
 23 38  1  0  0  0  0
 24 26  1  0  0  0  0
 24 39  1  0  0  0  0
 25 27  2  0  0  0  0
 25 40  1  0  0  0  0
 26 28  2  0  0  0  0
 26 41  1  0  0  0  0
 27 28  1  0  0  0  0
 27 42  1  0  0  0  0
 28 43  1  0  0  0  0
 29 44  1  0  0  0  0
 29 45  1  0  0  0  0
 29 46  1  0  0  0  0
M  END
> <PUBCHEM_COMPOUND_CID>
24864821

> <PUBCHEM_CONFORMER_RMSD>
0.8

> <PUBCHEM_CONFORMER_DIVERSEORDER>
1
123
131
169
96
95
83
132
12
165
51
114
146
84
116
138
44
7
139
149
8
135
10
161
163
111
141
144
76
94
60
9
79
36
151
166
140
153
69
154
2
32
129
127
156
104
54
150
125
152
145
110
122
15
101
11
147
167
34
142
98
49
22
30
24
87
118
117
157
61
170
63
56
81
37
162
86
18
25
128
23
59
89
53
160
159
172
102
75
33
80
6
48
120
46
130
38
107
113
40
93
124
13
26
67
55
70
97
106
71
31
4
103
112
155
72
45
148
77
28
137
41
29
57
115
158
82
62
171
100
109
3
64
58
168
27
66
108
21
35
136
16
52
50
47
119
74
88
121
133
164
90
68
105
19
99
65
134
126
91
5
78
85
43
14
17
92
42
143
73
39
20

> <PUBCHEM_MMFF94_PARTIAL_CHARGES>
40
1 -0.36
11 0.14
12 0.08
13 0.35
14 0.31
15 -0.11
16 0.09
17 -0.14
18 -0.15
19 -0.15
2 -0.36
20 -0.15
21 0.08
22 -0.15
23 0.16
24 -0.15
25 -0.15
26 -0.15
27 -0.15
28 -0.15
29 0.28
3 0.51
32 0.15
33 0.15
34 0.15
35 0.15
36 0.15
37 0.15
38 0.15
39 0.15
4 -0.65
40 0.15
41 0.15
42 0.15
43 0.15
5 -0.34
6 -0.34
7 -0.62
8 0.01
9 0.46

> <PUBCHEM_EFFECTIVE_ROTOR_COUNT>
5

> <PUBCHEM_PHARMACOPHORE_FEATURES>
11
1 1 acceptor
1 2 acceptor
1 4 acceptor
1 7 acceptor
3 3 5 8 cation
3 3 6 11 cation
5 3 5 6 8 11 rings
6 10 14 18 19 21 22 rings
6 16 24 25 26 27 28 rings
6 3 4 11 13 15 17 rings
6 7 10 12 14 20 23 rings

> <PUBCHEM_HEAVY_ATOM_COUNT>
29

> <PUBCHEM_ATOM_DEF_STEREO_COUNT>
0

> <PUBCHEM_ATOM_UDEF_STEREO_COUNT>
0

> <PUBCHEM_BOND_DEF_STEREO_COUNT>
0

> <PUBCHEM_BOND_UDEF_STEREO_COUNT>
0

> <PUBCHEM_ISOTOPIC_ATOM_COUNT>
0

> <PUBCHEM_COMPONENT_COUNT>
1

> <PUBCHEM_CACTVS_TAUTO_COUNT>
1

> <PUBCHEM_CONFORMER_ID>
017B683500000001

> <PUBCHEM_MMFF94_ENERGY>
97.3157

> <PUBCHEM_FEATURE_SELFOVERLAP>
58.471

> <PUBCHEM_SHAPE_FINGERPRINT>
10616163 171 18195534906968912132
10675989 125 16397730265739665031
11014199 57 17979629362347971226
11513181 2 18201443557850022438
12293681 4 16896240011267194236
12422481 6 17187533089621933578
12553582 1 17476634751275680055
12788726 201 18129657646832873983
13122387 1 18411697660297220886
13140716 1 17835229421865956553
138480 1 17547019524513632629
14117953 113 17760926247142851301
14178342 30 18124575729806128800
14279260 333 18115026428907440770
14647877 51 16611937567022535834
150020 26 18126560128745115099
15403338 16 17171228513418626371
16110190 28 18265605503803187410
17093844 170 17693655918505912674
19319366 153 18043537320244279762
20531524 4 16393517370319849446
20764821 26 16896523083396518295
21133410 221 15455035809054500634
229767 44 18123171434557175250
238918 7 17622984821468728202
3298306 158 17983291526194352087
463206 1 16968863848870809582
532947 4 17545878231692518605
7097593 13 18336256916557413294

> <PUBCHEM_SHAPE_MULTIPOLES>
560.16
8.05
6.63
1.33
2.02
3.3
0.14
-1.99
-1.04
-2.09
0.74
0.55
1.07
-3.23

> <PUBCHEM_SHAPE_SELFOVERLAP>
1254.36

> <PUBCHEM_SHAPE_VOLUME>
296.3

> <PUBCHEM_COORDINATE_TYPE>
2
5
10

$$$$
11640390
  -OEChem-11282412143D

 55 60  0     0  0  0  0  0  0999 V2000
    6.8562    3.1467    0.4514 O   0  0  0  0  0  0  0  0  0  0  0  0
    3.5527   -1.0188   -0.5471 N   0  0  0  0  0  0  0  0  0  0  0  0
    2.4693    0.3087    0.8633 N   0  0  0  0  0  0  0  0  0  0  0  0
    2.8524   -3.3373   -1.9008 N   0  0  0  0  0  0  0  0  0  0  0  0
    0.7117   -3.3738   -1.0109 N   0  0  0  0  0  0  0  0  0  0  0  0
   -3.0546    0.2186   -0.0016 N   0  0  0  0  0  0  0  0  0  0  0  0
    5.4736    3.0362    0.0654 C   0  0  0  0  0  0  0  0  0  0  0  0
    4.8292    1.0312    0.3668 C   0  0  0  0  0  0  0  0  0  0  0  0
    4.5427    2.3614    1.0944 C   0  0  0  0  0  0  0  0  0  0  0  0
    5.1342    1.8731   -0.8898 C   0  0  0  0  0  0  0  0  0  0  0  0
    3.6058    0.1037    0.2303 C   0  0  0  0  0  0  0  0  0  0  0  0
    4.9885    4.3844   -0.4117 C   0  0  0  0  0  0  0  0  0  0  0  0
    2.2995   -1.5629   -0.3985 C   0  0  0  0  0  0  0  0  0  0  0  0
    1.6541   -0.7253    0.4749 C   0  0  0  0  0  0  0  0  0  0  0  0
    4.4760   -1.6241   -1.3737 C   0  0  0  0  0  0  0  0  0  0  0  0
    1.9489   -2.7795   -1.1162 C   0  0  0  0  0  0  0  0  0  0  0  0
    0.3074   -0.8596    0.9559 C   0  0  0  0  0  0  0  0  0  0  0  0
    4.1008   -2.7456   -2.0126 C   0  0  0  0  0  0  0  0  0  0  0  0
   -0.7455   -0.2618    0.2590 C   0  0  0  0  0  0  0  0  0  0  0  0
    0.0519   -1.5840    2.1136 C   0  0  0  0  0  0  0  0  0  0  0  0
   -2.0634   -0.3700    0.6941 C   0  0  0  0  0  0  0  0  0  0  0  0
   -1.2566   -1.7083    2.5716 C   0  0  0  0  0  0  0  0  0  0  0  0
   -2.3154   -1.1068    1.8705 C   0  0  0  0  0  0  0  0  0  0  0  0
   -3.6420   -1.2163    2.3088 C   0  0  0  0  0  0  0  0  0  0  0  0
   -4.3213    0.0891    0.4555 C   0  0  0  0  0  0  0  0  0  0  0  0
   -4.6655   -0.6108    1.5941 C   0  0  0  0  0  0  0  0  0  0  0  0
   -5.3261    0.7492   -0.3439 C   0  0  0  0  0  0  0  0  0  0  0  0
   -5.6776    2.0735   -0.0735 C   0  0  0  0  0  0  0  0  0  0  0  0
   -5.9494    0.0661   -1.3903 C   0  0  0  0  0  0  0  0  0  0  0  0
   -6.6482    2.7116   -0.8458 C   0  0  0  0  0  0  0  0  0  0  0  0
   -6.9200    0.7043   -2.1626 C   0  0  0  0  0  0  0  0  0  0  0  0
   -7.2692    2.0271   -1.8903 C   0  0  0  0  0  0  0  0  0  0  0  0
    5.7079    0.5070    0.7641 H   0  0  0  0  0  0  0  0  0  0  0  0
    4.8854    2.3977    2.1332 H   0  0  0  0  0  0  0  0  0  0  0  0
    3.5050    2.7148    1.0617 H   0  0  0  0  0  0  0  0  0  0  0  0
    5.9661    1.5059   -1.4987 H   0  0  0  0  0  0  0  0  0  0  0  0
    4.2769    2.0561   -1.5496 H   0  0  0  0  0  0  0  0  0  0  0  0
    3.9352    4.3593   -0.7127 H   0  0  0  0  0  0  0  0  0  0  0  0
    5.5684    4.7279   -1.2753 H   0  0  0  0  0  0  0  0  0  0  0  0
    5.0874    5.1373    0.3778 H   0  0  0  0  0  0  0  0  0  0  0  0
    7.3389    3.3405   -0.3704 H   0  0  0  0  0  0  0  0  0  0  0  0
    5.4586   -1.1825   -1.4768 H   0  0  0  0  0  0  0  0  0  0  0  0
    4.7980   -3.2526   -2.6711 H   0  0  0  0  0  0  0  0  0  0  0  0
   -0.5358    0.3046   -0.6484 H   0  0  0  0  0  0  0  0  0  0  0  0
    0.8572   -2.0570    2.6700 H   0  0  0  0  0  0  0  0  0  0  0  0
   -0.0303   -3.0035   -0.4298 H   0  0  0  0  0  0  0  0  0  0  0  0
    0.5034   -4.2220   -1.5271 H   0  0  0  0  0  0  0  0  0  0  0  0
   -1.4458   -2.2776    3.4789 H   0  0  0  0  0  0  0  0  0  0  0  0
   -3.8848   -1.7742    3.2102 H   0  0  0  0  0  0  0  0  0  0  0  0
   -5.6930   -0.6943    1.9324 H   0  0  0  0  0  0  0  0  0  0  0  0
   -5.2027    2.6220    0.7367 H   0  0  0  0  0  0  0  0  0  0  0  0
   -5.6885   -0.9652   -1.6164 H   0  0  0  0  0  0  0  0  0  0  0  0
   -6.9201    3.7416   -0.6341 H   0  0  0  0  0  0  0  0  0  0  0  0
   -7.4037    0.1715   -2.9761 H   0  0  0  0  0  0  0  0  0  0  0  0
   -8.0249    2.5240   -2.4918 H   0  0  0  0  0  0  0  0  0  0  0  0
  1  7  1  0  0  0  0
  1 41  1  0  0  0  0
  2 11  1  0  0  0  0
  2 13  1  0  0  0  0
  2 15  1  0  0  0  0
  3 11  2  0  0  0  0
  3 14  1  0  0  0  0
  4 16  2  0  0  0  0
  4 18  1  0  0  0  0
  5 16  1  0  0  0  0
  5 46  1  0  0  0  0
  5 47  1  0  0  0  0
  6 21  1  0  0  0  0
  6 25  2  0  0  0  0
  7  9  1  0  0  0  0
  7 10  1  0  0  0  0
  7 12  1  0  0  0  0
  8  9  1  0  0  0  0
  8 10  1  0  0  0  0
  8 11  1  0  0  0  0
  8 33  1  0  0  0  0
  9 34  1  0  0  0  0
  9 35  1  0  0  0  0
 10 36  1  0  0  0  0
 10 37  1  0  0  0  0
 12 38  1  0  0  0  0
 12 39  1  0  0  0  0
 12 40  1  0  0  0  0
 13 14  2  0  0  0  0
 13 16  1  0  0  0  0
 14 17  1  0  0  0  0
 15 18  2  0  0  0  0
 15 42  1  0  0  0  0
 17 19  2  0  0  0  0
 17 20  1  0  0  0  0
 18 43  1  0  0  0  0
 19 21  1  0  0  0  0
 19 44  1  0  0  0  0
 20 22  2  0  0  0  0
 20 45  1  0  0  0  0
 21 23  2  0  0  0  0
 22 23  1  0  0  0  0
 22 48  1  0  0  0  0
 23 24  1  0  0  0  0
 24 26  2  0  0  0  0
 24 49  1  0  0  0  0
 25 26  1  0  0  0  0
 25 27  1  0  0  0  0
 26 50  1  0  0  0  0
 27 28  2  0  0  0  0
 27 29  1  0  0  0  0
 28 30  1  0  0  0  0
 28 51  1  0  0  0  0
 29 31  2  0  0  0  0
 29 52  1  0  0  0  0
 30 32  2  0  0  0  0
 30 53  1  0  0  0  0
 31 32  1  0  0  0  0
 31 54  1  0  0  0  0
 32 55  1  0  0  0  0
M  END
> <PUBCHEM_COMPOUND_CID>
11640390

> <PUBCHEM_CONFORMER_RMSD>
0.8

> <PUBCHEM_CONFORMER_DIVERSEORDER>
1
9
6
10
7
8
5
2
3
4

> <PUBCHEM_MMFF94_PARTIAL_CHARGES>
42
1 -0.66
11 0.03
13 -0.24
14 0.17
15 -0.18
16 0.58
17 0.05
18 0.02
19 -0.15
2 0.33
20 -0.15
21 0.31
22 -0.15
24 -0.15
25 0.31
26 -0.15
28 -0.15
29 -0.15
3 -0.57
30 -0.15
31 -0.15
32 -0.15
4 -0.62
41 0.4
42 0.15
43 0.15
44 0.15
45 0.15
46 0.4
47 0.4
48 0.15
49 0.15
5 -0.85
50 0.15
51 0.15
52 0.15
53 0.15
54 0.15
55 0.15
6 -0.62
7 0.26
8 0.16

> <PUBCHEM_EFFECTIVE_ROTOR_COUNT>
3.8

> <PUBCHEM_PHARMACOPHORE_FEATURES>
12
1 1 acceptor
1 1 donor
1 5 donor
1 6 acceptor
3 2 3 11 cation
3 4 5 16 cation
4 7 8 9 10 rings
5 2 3 11 13 14 rings
6 17 19 20 21 22 23 rings
6 2 4 13 15 16 18 rings
6 27 28 29 30 31 32 rings
6 6 21 23 24 25 26 rings

> <PUBCHEM_HEAVY_ATOM_COUNT>
32

> <PUBCHEM_ATOM_DEF_STEREO_COUNT>
0

> <PUBCHEM_ATOM_UDEF_STEREO_COUNT>
0

> <PUBCHEM_BOND_DEF_STEREO_COUNT>
0

> <PUBCHEM_BOND_UDEF_STEREO_COUNT>
0

> <PUBCHEM_ISOTOPIC_ATOM_COUNT>
0

> <PUBCHEM_COMPONENT_COUNT>
1

> <PUBCHEM_CACTVS_TAUTO_COUNT>
2

> <PUBCHEM_CONFORMER_ID>
00B19E4600000001

> <PUBCHEM_MMFF94_ENERGY>
99.6843

> <PUBCHEM_FEATURE_SELFOVERLAP>
61.03

> <PUBCHEM_SHAPE_FINGERPRINT>
10554248 39 17988651744137387147
10985338 1 18272649000391462550
11720765 8 17902787457851795866
12440610 7 18187374271491251607
13911987 19 18058740246194824264
14251764 30 10807940383525176137
14556957 393 17346325864696473785
14739800 52 17677319529428052321
15082195 135 18130782348048494529
15183329 4 17915172422189576919
15238133 3 16298110886540153674
15274700 147 16967740148082701469
15324884 4 18045251372984069746
15350500 55 18188486990960964940
15530120 55 17917130746709111933
15950262 2 17533221006105548496
16989378 47 15554439730453331889
19246450 95 12974698440469216301
19304671 126 18336826373745270141
20505436 4 13263839221039894282
20715895 44 18113896078676436224
21033648 29 17821737143209405331
21223535 225 18049730620315384585
21585481 104 18057879148935242437
21968339 14 18201996625605687688
22033318 11 12685648842271596239
23522609 53 17059796446297044017
23559900 14 17750250126818790594
23929065 36 17387137666519335115
24893989 43 13683719681909287589
25269216 80 15123515860530282077
27425 322 18260820522987149743
2748736 6 17967802873598510709
2838139 119 18263360463967416944
3004659 81 17345745266716989111
3388396 114 17918001576555224400
3459 39 17022620862628738863
34797466 226 18412827967594629795
3504750 166 9583515444075302849
3862424 121 13613668743921300573
3918712 181 17750776780795248741
44249763 50 17967812769608927063
44317340 157 18340495461210976187
44880568 143 18339356363154983261
46194498 28 18271241608300496813
504579 68 17203613674773675125
5104073 3 16877939421864583785
5223283 242 17766294071915806367
5951187 136 18261387798151388856
59682541 52 18131065979193252447
60123966 16 18412832356834785950
6058803 2 16843063921805933522
6327066 14 18268988873002215684
636775 8 9510923500118821224
6376802 90 18334861666314536563
6677587 24 18196342897749345957
6697151 62 18122909733430916990

> <PUBCHEM_SHAPE_MULTIPOLES>
627.77
18.77
4.24
2.22
16.32
2.41
-0.16
19.89
8.33
-7.24
1.38
1.76
-1.62
5.06

> <PUBCHEM_SHAPE_SELFOVERLAP>
1419.472

> <PUBCHEM_SHAPE_VOLUME>
329.3

> <PUBCHEM_COORDINATE_TYPE>
2
5
10

$$$$
16038120
  -OEChem-11282412143D

 82 86  0     0  0  0  0  0  0999 V2000
    7.4353    0.8702    0.0703 Cl  0  0  0  0  0  0  0  0  0  0  0  0
    4.8160   -3.4780   -0.4562 S   0  0  0  0  0  0  0  0  0  0  0  0
    0.0286    4.8729    0.2461 O   0  0  0  0  0  0  0  0  0  0  0  0
    6.1665   -2.9485   -0.3503 O   0  0  0  0  0  0  0  0  0  0  0  0
    4.5976   -4.9165   -0.4560 O   0  0  0  0  0  0  0  0  0  0  0  0
   -6.8259   -0.6599   -0.2185 N   0  0  0  0  0  0  0  0  0  0  0  0
   -3.0106    1.1802   -0.1480 N   0  0  0  0  0  0  0  0  0  0  0  0
   -9.5152   -1.6785    0.0784 N   0  0  0  0  0  0  0  0  0  0  0  0
    2.1772    3.2517   -0.5712 N   0  0  0  0  0  0  0  0  0  0  0  0
    3.4658    1.3546   -0.0945 N   0  0  0  0  0  0  0  0  0  0  0  0
    4.5094    3.4681   -0.5959 N   0  0  0  0  0  0  0  0  0  0  0  0
    4.7807   -0.5510    0.3844 N   0  0  0  0  0  0  0  0  0  0  0  0
   -5.6768    0.1288    0.2219 C   0  0  0  0  0  0  0  0  0  0  0  0
   -4.4386   -0.7584    0.3786 C   0  0  0  0  0  0  0  0  0  0  0  0
   -5.3887    1.2418   -0.7878 C   0  0  0  0  0  0  0  0  0  0  0  0
   -3.2176    0.0654    0.7870 C   0  0  0  0  0  0  0  0  0  0  0  0
   -4.1620    2.0593   -0.3802 C   0  0  0  0  0  0  0  0  0  0  0  0
   -7.1387   -1.7138    0.7544 C   0  0  0  0  0  0  0  0  0  0  0  0
   -7.9955    0.2000   -0.4370 C   0  0  0  0  0  0  0  0  0  0  0  0
   -8.3460   -2.5391    0.2962 C   0  0  0  0  0  0  0  0  0  0  0  0
   -9.2020   -0.6262   -0.8960 C   0  0  0  0  0  0  0  0  0  0  0  0
   -1.7151    1.7012   -0.2523 C   0  0  0  0  0  0  0  0  0  0  0  0
  -10.6653   -2.4665   -0.3603 C   0  0  0  0  0  0  0  0  0  0  0  0
   -1.4757    3.0417    0.0504 C   0  0  0  0  0  0  0  0  0  0  0  0
   -0.6641    0.8798   -0.6600 C   0  0  0  0  0  0  0  0  0  0  0  0
   -0.1852    3.5607   -0.0544 C   0  0  0  0  0  0  0  0  0  0  0  0
    0.6264    1.3990   -0.7651 C   0  0  0  0  0  0  0  0  0  0  0  0
    0.8658    2.7394   -0.4623 C   0  0  0  0  0  0  0  0  0  0  0  0
    3.4456    2.6631   -0.4128 C   0  0  0  0  0  0  0  0  0  0  0  0
    0.3547    5.1822    1.5993 C   0  0  0  0  0  0  0  0  0  0  0  0
    4.0906   -2.8403   -1.9483 C   0  0  0  0  0  0  0  0  0  0  0  0
    3.8605   -2.7642    0.8257 C   0  0  0  0  0  0  0  0  0  0  0  0
    3.9347   -1.4015    1.1144 C   0  0  0  0  0  0  0  0  0  0  0  0
    2.6179   -3.2153   -2.0204 C   0  0  0  0  0  0  0  0  0  0  0  0
    4.8534   -3.3470   -3.1634 C   0  0  0  0  0  0  0  0  0  0  0  0
    4.6976    0.8227    0.0494 C   0  0  0  0  0  0  0  0  0  0  0  0
    3.0123   -3.5885    1.5650 C   0  0  0  0  0  0  0  0  0  0  0  0
    3.1608   -0.8631    2.1424 C   0  0  0  0  0  0  0  0  0  0  0  0
    5.8658    1.5395   -0.1110 C   0  0  0  0  0  0  0  0  0  0  0  0
    5.7091    2.8714   -0.4367 C   0  0  0  0  0  0  0  0  0  0  0  0
    2.2381   -3.0501    2.5930 C   0  0  0  0  0  0  0  0  0  0  0  0
    2.3125   -1.6874    2.8817 C   0  0  0  0  0  0  0  0  0  0  0  0
   -5.8948    0.5948    1.1941 H   0  0  0  0  0  0  0  0  0  0  0  0
   -4.5652   -1.5180    1.1558 H   0  0  0  0  0  0  0  0  0  0  0  0
   -4.2251   -1.2812   -0.5632 H   0  0  0  0  0  0  0  0  0  0  0  0
   -5.2250    0.8168   -1.7872 H   0  0  0  0  0  0  0  0  0  0  0  0
   -6.2057    1.9657   -0.8630 H   0  0  0  0  0  0  0  0  0  0  0  0
   -2.3514   -0.6054    0.8225 H   0  0  0  0  0  0  0  0  0  0  0  0
   -3.3541    0.4656    1.7998 H   0  0  0  0  0  0  0  0  0  0  0  0
   -3.9518    2.7731   -1.1868 H   0  0  0  0  0  0  0  0  0  0  0  0
   -4.3844    2.6313    0.5295 H   0  0  0  0  0  0  0  0  0  0  0  0
   -6.3206   -2.4330    0.8508 H   0  0  0  0  0  0  0  0  0  0  0  0
   -7.3337   -1.2907    1.7490 H   0  0  0  0  0  0  0  0  0  0  0  0
   -8.2516    0.7637    0.4700 H   0  0  0  0  0  0  0  0  0  0  0  0
   -7.8318    0.9158   -1.2473 H   0  0  0  0  0  0  0  0  0  0  0  0
   -8.5723   -3.2805    1.0723 H   0  0  0  0  0  0  0  0  0  0  0  0
   -8.0908   -3.0914   -0.6186 H   0  0  0  0  0  0  0  0  0  0  0  0
   -9.0006   -1.0574   -1.8862 H   0  0  0  0  0  0  0  0  0  0  0  0
  -10.0616    0.0469   -1.0022 H   0  0  0  0  0  0  0  0  0  0  0  0
  -11.5469   -1.8268   -0.4780 H   0  0  0  0  0  0  0  0  0  0  0  0
  -10.9230   -3.2213    0.3909 H   0  0  0  0  0  0  0  0  0  0  0  0
  -10.4800   -2.9770   -1.3123 H   0  0  0  0  0  0  0  0  0  0  0  0
   -2.2729    3.7007    0.3842 H   0  0  0  0  0  0  0  0  0  0  0  0
   -0.8348   -0.1609   -0.9234 H   0  0  0  0  0  0  0  0  0  0  0  0
    1.4016    0.7349   -1.1327 H   0  0  0  0  0  0  0  0  0  0  0  0
    2.2223    4.2613   -0.6723 H   0  0  0  0  0  0  0  0  0  0  0  0
   -0.4694    4.9050    2.2643 H   0  0  0  0  0  0  0  0  0  0  0  0
    1.2721    4.6693    1.9050 H   0  0  0  0  0  0  0  0  0  0  0  0
    0.5164    6.2609    1.6746 H   0  0  0  0  0  0  0  0  0  0  0  0
    4.1831   -1.7505   -1.9243 H   0  0  0  0  0  0  0  0  0  0  0  0
    2.4694   -4.2994   -1.9760 H   0  0  0  0  0  0  0  0  0  0  0  0
    2.0401   -2.7636   -1.2086 H   0  0  0  0  0  0  0  0  0  0  0  0
    2.1787   -2.8592   -2.9588 H   0  0  0  0  0  0  0  0  0  0  0  0
    4.8140   -4.4393   -3.2357 H   0  0  0  0  0  0  0  0  0  0  0  0
    5.9083   -3.0566   -3.1162 H   0  0  0  0  0  0  0  0  0  0  0  0
    4.4345   -2.9323   -4.0863 H   0  0  0  0  0  0  0  0  0  0  0  0
    5.5628   -1.0123   -0.0690 H   0  0  0  0  0  0  0  0  0  0  0  0
    2.9293   -4.6524    1.3639 H   0  0  0  0  0  0  0  0  0  0  0  0
    3.2091    0.1920    2.3982 H   0  0  0  0  0  0  0  0  0  0  0  0
    1.5773   -3.6915    3.1687 H   0  0  0  0  0  0  0  0  0  0  0  0
    6.5620    3.5263   -0.5858 H   0  0  0  0  0  0  0  0  0  0  0  0
    1.7117   -1.2690    3.6840 H   0  0  0  0  0  0  0  0  0  0  0  0
  1 39  1  0  0  0  0
  2  4  2  0  0  0  0
  2  5  2  0  0  0  0
  2 31  1  0  0  0  0
  2 32  1  0  0  0  0
  3 26  1  0  0  0  0
  3 30  1  0  0  0  0
  6 13  1  0  0  0  0
  6 18  1  0  0  0  0
  6 19  1  0  0  0  0
  7 16  1  0  0  0  0
  7 17  1  0  0  0  0
  7 22  1  0  0  0  0
  8 20  1  0  0  0  0
  8 21  1  0  0  0  0
  8 23  1  0  0  0  0
  9 28  1  0  0  0  0
  9 29  1  0  0  0  0
  9 66  1  0  0  0  0
 10 29  1  0  0  0  0
 10 36  2  0  0  0  0
 11 29  2  0  0  0  0
 11 40  1  0  0  0  0
 12 33  1  0  0  0  0
 12 36  1  0  0  0  0
 12 77  1  0  0  0  0
 13 14  1  0  0  0  0
 13 15  1  0  0  0  0
 13 43  1  0  0  0  0
 14 16  1  0  0  0  0
 14 44  1  0  0  0  0
 14 45  1  0  0  0  0
 15 17  1  0  0  0  0
 15 46  1  0  0  0  0
 15 47  1  0  0  0  0
 16 48  1  0  0  0  0
 16 49  1  0  0  0  0
 17 50  1  0  0  0  0
 17 51  1  0  0  0  0
 18 20  1  0  0  0  0
 18 52  1  0  0  0  0
 18 53  1  0  0  0  0
 19 21  1  0  0  0  0
 19 54  1  0  0  0  0
 19 55  1  0  0  0  0
 20 56  1  0  0  0  0
 20 57  1  0  0  0  0
 21 58  1  0  0  0  0
 21 59  1  0  0  0  0
 22 24  2  0  0  0  0
 22 25  1  0  0  0  0
 23 60  1  0  0  0  0
 23 61  1  0  0  0  0
 23 62  1  0  0  0  0
 24 26  1  0  0  0  0
 24 63  1  0  0  0  0
 25 27  2  0  0  0  0
 25 64  1  0  0  0  0
 26 28  2  0  0  0  0
 27 28  1  0  0  0  0
 27 65  1  0  0  0  0
 30 67  1  0  0  0  0
 30 68  1  0  0  0  0
 30 69  1  0  0  0  0
 31 34  1  0  0  0  0
 31 35  1  0  0  0  0
 31 70  1  0  0  0  0
 32 33  1  0  0  0  0
 32 37  2  0  0  0  0
 33 38  2  0  0  0  0
 34 71  1  0  0  0  0
 34 72  1  0  0  0  0
 34 73  1  0  0  0  0
 35 74  1  0  0  0  0
 35 75  1  0  0  0  0
 35 76  1  0  0  0  0
 36 39  1  0  0  0  0
 37 41  1  0  0  0  0
 37 78  1  0  0  0  0
 38 42  1  0  0  0  0
 38 79  1  0  0  0  0
 39 40  2  0  0  0  0
 40 81  1  0  0  0  0
 41 42  2  0  0  0  0
 41 80  1  0  0  0  0
 42 82  1  0  0  0  0
M  END
> <PUBCHEM_COMPOUND_CID>
16038120

> <PUBCHEM_CONFORMER_RMSD>
1.2

> <PUBCHEM_CONFORMER_DIVERSEORDER>
1
58
15
57
82
42
59
46
47
96
68
62
101
63
54
31
111
107
91
40
87
23
76
79
93
72
50
28
14
48
55
75
97
41
53
81
102
25
95
66
90
64
51
21
37
61
70
52
30
106
36
108
3
17
7
6
43
77
94
56
4
49
19
88
83
109
13
27
99
110
60
44
89
103
32
71
78
112
84
104
65
39
5
12
33
38
86
24
16
69
34
20
74
85
92
98
73
100
26
11
67
9
45
10
18
8
105
35
2
22
29
80

> <PUBCHEM_MMFF94_PARTIAL_CHARGES>
48
1 -0.18
10 -0.62
11 -0.62
12 -0.6
13 0.27
16 0.37
17 0.37
18 0.27
19 0.27
2 1.2
20 0.27
21 0.27
22 0.1
23 0.27
24 -0.15
25 -0.15
26 0.08
27 -0.15
28 0.1
29 0.72
3 -0.36
30 0.28
31 0.11
32 -0.01
33 0.1
36 0.41
37 -0.15
38 -0.15
39 0.18
4 -0.65
40 0.16
41 -0.15
42 -0.15
5 -0.65
6 -0.81
63 0.15
64 0.15
65 0.15
66 0.4
7 -0.84
77 0.4
78 0.15
79 0.15
8 -0.81
80 0.15
81 0.15
82 0.15
9 -0.6

> <PUBCHEM_EFFECTIVE_ROTOR_COUNT>
11.4

> <PUBCHEM_PHARMACOPHORE_FEATURES>
15
1 12 donor
1 3 acceptor
1 4 acceptor
1 5 acceptor
1 6 cation
1 7 cation
1 8 cation
1 9 donor
3 31 34 35 hydrophobe
4 9 10 11 29 cation
6 10 11 29 36 39 40 rings
6 22 24 25 26 27 28 rings
6 32 33 37 38 41 42 rings
6 6 8 18 19 20 21 rings
6 7 13 14 15 16 17 rings

> <PUBCHEM_HEAVY_ATOM_COUNT>
42

> <PUBCHEM_ATOM_DEF_STEREO_COUNT>
0

> <PUBCHEM_ATOM_UDEF_STEREO_COUNT>
0

> <PUBCHEM_BOND_DEF_STEREO_COUNT>
0

> <PUBCHEM_BOND_UDEF_STEREO_COUNT>
0

> <PUBCHEM_ISOTOPIC_ATOM_COUNT>
0

> <PUBCHEM_COMPONENT_COUNT>
1

> <PUBCHEM_CACTVS_TAUTO_COUNT>
9

> <PUBCHEM_CONFORMER_ID>
00F4B8E800000001

> <PUBCHEM_MMFF94_ENERGY>
144.7755

> <PUBCHEM_FEATURE_SELFOVERLAP>
76.142

> <PUBCHEM_SHAPE_FINGERPRINT>
10050765 1 18335417912340940869
10928967 22 17395585987407446360
10951579 204 16443613598888611853
117089 54 18126288541152508126
11828532 37 18113913657703603850
11966995 16 17895185589904032279
12124843 1 17750807545007316062
12728208 25 18202283590215338171
13692114 37 18336823217392492960
13751561 76 18410865377319249815
13782708 43 18113333095053639253
13989917 61 18409730664060270867
15001296 14 18189612744152870632
15347590 135 18200301243312105776
15351339 4 18113331994624523473
15484559 13 18042414702278735348
15890870 6 18114181986618045896
16067689 302 18262241136062274259
17492 89 18267303128181643724
19301679 30 18343022146904706045
19841028 212 18334853879395494769
20028762 73 18409730690847958992
20587220 46 17917715712395912022
20771845 140 18131624609100501336
21197605 99 18409728453180222506
24893989 43 18411699906676744143
46194498 28 18128254494250494574
57676310 108 17702684172413474830
9831232 110 18268710511423133855

> <PUBCHEM_SHAPE_MULTIPOLES>
817.58
25.59
6.78
1.88
73.6
1.88
-0.27
-20.71
4.56
-9.19
0.15
-3.14
-2.31
0.94

> <PUBCHEM_SHAPE_SELFOVERLAP>
1716.169

> <PUBCHEM_SHAPE_VOLUME>
464.6

> <PUBCHEM_COORDINATE_TYPE>
2
5
10

$$$$
44205240
  -OEChem-11282412143D

 43 46  0     0  0  0  0  0  0999 V2000
    4.8164    1.3859   -0.1527 S   0  0  0  0  0  0  0  0  0  0  0  0
    5.5163    2.0164    0.9437 O   0  0  0  0  0  0  0  0  0  0  0  0
    4.1279    2.1572   -1.1629 O   0  0  0  0  0  0  0  0  0  0  0  0
    3.7286    0.2242    0.4865 N   0  0  0  0  0  0  0  0  0  0  0  0
    0.5108   -0.5494    0.1250 N   0  0  0  0  0  0  0  0  0  0  0  0
    0.2031   -0.9500   -1.1205 N   0  0  0  0  0  0  0  0  0  0  0  0
    1.5089   -4.1979    0.4099 N   0  0  0  0  0  0  0  0  0  0  0  0
   -2.9515    1.6474    1.0449 N   0  0  0  0  0  0  0  0  0  0  0  0
   -6.2325    0.0552   -0.6940 N   0  0  0  0  0  0  0  0  0  0  0  0
   -5.3730    1.7345    0.8075 N   0  0  0  0  0  0  0  0  0  0  0  0
    1.8251   -0.7484    0.7069 C   0  0  0  0  0  0  0  0  0  0  0  0
    2.9381   -0.7458   -0.3526 C   0  0  0  0  0  0  0  0  0  0  0  0
    2.4483    0.5656    1.2035 C   0  0  0  0  0  0  0  0  0  0  0  0
    1.7991   -1.9016    1.6697 C   0  0  0  0  0  0  0  0  0  0  0  0
    5.9472    0.2914   -0.9710 C   0  0  0  0  0  0  0  0  0  0  0  0
   -0.5204    0.0587    0.7787 C   0  0  0  0  0  0  0  0  0  0  0  0
   -1.5759    0.0557   -0.1002 C   0  0  0  0  0  0  0  0  0  0  0  0
    1.6370   -3.1903    0.9708 C   0  0  0  0  0  0  0  0  0  0  0  0
   -1.0728   -0.5776   -1.2523 C   0  0  0  0  0  0  0  0  0  0  0  0
    7.0607    1.0536   -1.6538 C   0  0  0  0  0  0  0  0  0  0  0  0
   -2.8628    0.6021    0.1901 C   0  0  0  0  0  0  0  0  0  0  0  0
   -4.0223    0.0854   -0.3862 C   0  0  0  0  0  0  0  0  0  0  0  0
   -5.2190    0.6967   -0.0328 C   0  0  0  0  0  0  0  0  0  0  0  0
   -4.3426   -0.9578   -1.2923 C   0  0  0  0  0  0  0  0  0  0  0  0
   -4.1843    2.1421    1.2971 C   0  0  0  0  0  0  0  0  0  0  0  0
   -5.7106   -0.9534   -1.4630 C   0  0  0  0  0  0  0  0  0  0  0  0
    3.4811   -1.6826   -0.5076 H   0  0  0  0  0  0  0  0  0  0  0  0
    2.7007   -0.3108   -1.3306 H   0  0  0  0  0  0  0  0  0  0  0  0
    2.0120    1.4946    0.8179 H   0  0  0  0  0  0  0  0  0  0  0  0
    2.5920    0.6578    2.2840 H   0  0  0  0  0  0  0  0  0  0  0  0
    1.0089   -1.7844    2.4214 H   0  0  0  0  0  0  0  0  0  0  0  0
    2.7392   -1.9453    2.2353 H   0  0  0  0  0  0  0  0  0  0  0  0
    6.3590   -0.3879   -0.2187 H   0  0  0  0  0  0  0  0  0  0  0  0
    5.3872   -0.2846   -1.7131 H   0  0  0  0  0  0  0  0  0  0  0  0
   -0.4193    0.4292    1.7908 H   0  0  0  0  0  0  0  0  0  0  0  0
   -1.5608   -0.7748   -2.1956 H   0  0  0  0  0  0  0  0  0  0  0  0
    6.6651    1.7420   -2.4075 H   0  0  0  0  0  0  0  0  0  0  0  0
    7.6364    1.6435   -0.9332 H   0  0  0  0  0  0  0  0  0  0  0  0
    7.7465    0.3614   -2.1518 H   0  0  0  0  0  0  0  0  0  0  0  0
   -3.6725   -1.6573   -1.7707 H   0  0  0  0  0  0  0  0  0  0  0  0
   -7.2133    0.2886   -0.6249 H   0  0  0  0  0  0  0  0  0  0  0  0
   -6.3585   -1.5795   -2.0601 H   0  0  0  0  0  0  0  0  0  0  0  0
   -4.2211    2.9790    1.9859 H   0  0  0  0  0  0  0  0  0  0  0  0
  1  2  2  0  0  0  0
  1  3  2  0  0  0  0
  1  4  1  0  0  0  0
  1 15  1  0  0  0  0
  4 12  1  0  0  0  0
  4 13  1  0  0  0  0
  5  6  1  0  0  0  0
  5 11  1  0  0  0  0
  5 16  1  0  0  0  0
  6 19  2  0  0  0  0
  7 18  3  0  0  0  0
  8 21  1  0  0  0  0
  8 25  2  0  0  0  0
  9 23  1  0  0  0  0
  9 26  1  0  0  0  0
  9 41  1  0  0  0  0
 10 23  2  0  0  0  0
 10 25  1  0  0  0  0
 11 12  1  0  0  0  0
 11 13  1  0  0  0  0
 11 14  1  0  0  0  0
 12 27  1  0  0  0  0
 12 28  1  0  0  0  0
 13 29  1  0  0  0  0
 13 30  1  0  0  0  0
 14 18  1  0  0  0  0
 14 31  1  0  0  0  0
 14 32  1  0  0  0  0
 15 20  1  0  0  0  0
 15 33  1  0  0  0  0
 15 34  1  0  0  0  0
 16 17  2  0  0  0  0
 16 35  1  0  0  0  0
 17 19  1  0  0  0  0
 17 21  1  0  0  0  0
 19 36  1  0  0  0  0
 20 37  1  0  0  0  0
 20 38  1  0  0  0  0
 20 39  1  0  0  0  0
 21 22  2  0  0  0  0
 22 23  1  0  0  0  0
 22 24  1  0  0  0  0
 24 26  2  0  0  0  0
 24 40  1  0  0  0  0
 25 43  1  0  0  0  0
 26 42  1  0  0  0  0
M  END
> <PUBCHEM_COMPOUND_CID>
44205240

> <PUBCHEM_CONFORMER_RMSD>
0.8

> <PUBCHEM_CONFORMER_DIVERSEORDER>
1
229
271
337
112
215
116
171
96
151
26
279
338
66
240
292
128
248
124
340
177
144
319
334
59
90
129
320
226
109
274
132
102
201
251
152
84
299
277
178
219
232
342
136
130
330
31
145
118
275
324
282
213
28
7
270
249
174
329
137
39
223
32
212
146
264
302
153
312
170
193
120
83
14
283
225
297
147
20
231
113
333
181
256
195
293
244
30
62
301
71
175
53
204
252
294
243
257
87
306
79
186
190
305
142
255
183
19
121
25
288
326
48
278
238
139
133
308
122
339
281
224
218
221
173
70
159
85
80
303
259
29
141
327
336
230
72
43
157
179
56
198
58
265
222
35
242
313
6
280
155
188
158
335
89
314
34
104
111
42
239
296
237
317
241
332
315
194
114
125
164
233
311
286
150
250
227
16
266
197
253
2
115
180
184
169
98
192
162
11
258
76
261
107
57
119
108
200
9
182
127
52
325
154
92
321
27
310
91
47
245
86
236
105
176
246
262
202
211
167
36
61
143
263
208
78
63
217
41
205
216
148
295
106
316
117
290
140
285
300
207
17
97
168
73
126
15
191
254
165
74
166
185
99
75
276
68
49
268
5
149
50
46
163
38
23
77
21
172
331
318
196
284
22
187
40
328
33
341
101
228
214
161
138
51
287
234
220
12
82
189
160
60
269
309
45
95
37
44
103
94
4
289
323
199
88
55
69
134
304
18
322
67
206
8
10
65
307
3
247
24
298
135
110
81
260
100
13
272
131
123
235
267
64
54
209
93
156
273
203
291
210

> <PUBCHEM_MMFF94_PARTIAL_CHARGES>
30
1 1.33
10 -0.57
11 0.09
12 0.31
13 0.31
14 0.2
15 0.11
16 -0.3
17 -0.05
18 0.36
19 0.14
2 -0.65
21 0.36
23 0.11
24 -0.15
25 0.47
26 -0.3
3 -0.65
35 0.15
36 0.15
4 -0.75
40 0.15
41 0.27
42 0.15
43 0.15
5 0.48
6 -0.71
7 -0.56
8 -0.62
9 0.03

> <PUBCHEM_EFFECTIVE_ROTOR_COUNT>
5.8

> <PUBCHEM_PHARMACOPHORE_FEATURES>
11
1 2 acceptor
1 3 acceptor
1 6 acceptor
1 7 acceptor
1 9 donor
3 8 10 25 cation
3 9 10 23 cation
4 4 11 12 13 rings
5 5 6 16 17 19 rings
5 9 22 23 24 26 rings
6 8 10 21 22 23 25 rings

> <PUBCHEM_HEAVY_ATOM_COUNT>
26

> <PUBCHEM_ATOM_DEF_STEREO_COUNT>
0

> <PUBCHEM_ATOM_UDEF_STEREO_COUNT>
0

> <PUBCHEM_BOND_DEF_STEREO_COUNT>
0

> <PUBCHEM_BOND_UDEF_STEREO_COUNT>
0

> <PUBCHEM_ISOTOPIC_ATOM_COUNT>
0

> <PUBCHEM_COMPONENT_COUNT>
1

> <PUBCHEM_CACTVS_TAUTO_COUNT>
3

> <PUBCHEM_CONFORMER_ID>
02A284B800000001

> <PUBCHEM_MMFF94_ENERGY>
39.0782

> <PUBCHEM_FEATURE_SELFOVERLAP>
56.117

> <PUBCHEM_SHAPE_FINGERPRINT>
10 15 14851889192643122940
10090160 65 18187361034427607257
10366900 7 18408598176000163665
10554248 39 17984407548430918381
10670039 82 18201723929368582448
10759866 29 18200589203372050867
11315621 246 17703219720037242581
11578080 2 17970619689387299261
11823591 26 18041276660509129240
12107183 9 17478609010829926819
12236239 1 18342172262981060573
12403259 415 16128364983183472939
12516196 113 10159702391590594526
13167823 11 18199179608285999363
13631057 29 18265048218980642563
13685833 64 12823300104645968916
13782708 43 14548444895192689221
14251752 14 17418096499115491460
14528608 73 18411979173965456392
14840074 17 17676206900737760108
15183329 4 17560810913836129484
15250474 111 18199732684120514039
15301273 46 13334730229330191848
17980427 23 16588594235000578454
18681886 176 17560794459230843121
19377110 9 18411409592988608739
20832881 197 12103852266996045286
21065198 48 18270393894116538115
21267235 1 17846778559909350391
21424621 283 18341608261636566424
21781055 127 16126695787441929803
2297311 6 17275105046610008225
23559900 14 17201359551604417575
3004659 81 17561369474659892164
34797466 226 16916788543075468480
38570 142 18411427206670724558
474 4 18260830427244706400
504579 68 18271798000318950621
5104073 3 17916859115971386827
59755656 520 18334293201912900190
7226269 152 13767913620980268973

> <PUBCHEM_SHAPE_MULTIPOLES>
492.31
15.87
2.73
1.51
2.38
2.61
0.11
-9.13
5.85
1.94
-1.03
0.27
0.01
-2.52

> <PUBCHEM_SHAPE_SELFOVERLAP>
1061.16

> <PUBCHEM_SHAPE_VOLUME>
274.4

> <PUBCHEM_COORDINATE_TYPE>
2
5
10

$$$$
59473233
  -OEChem-11282412143D

 52 57  0     0  0  0  0  0  0999 V2000
   -7.2460   -1.7204    0.1153 O   0  0  0  0  0  0  0  0  0  0  0  0
   -4.8828   -0.1999    0.0716 N   0  0  0  0  0  0  0  0  0  0  0  0
   -0.1466    2.6839   -0.5533 N   0  0  0  0  0  0  0  0  0  0  0  0
    3.4220    2.7063    0.4267 N   0  0  0  0  0  0  0  0  0  0  0  0
    1.4252    0.9650   -0.3757 N   0  0  0  0  0  0  0  0  0  0  0  0
    2.0594    4.4672    0.3066 N   0  0  0  0  0  0  0  0  0  0  0  0
    2.0124   -4.2969    0.9874 N   0  0  0  0  0  0  0  0  0  0  0  0
    2.5644   -5.4488    0.5713 N   0  0  0  0  0  0  0  0  0  0  0  0
   -4.8286   -1.6611   -0.0730 C   0  0  0  0  0  0  0  0  0  0  0  0
   -6.1665    0.4157   -0.2822 C   0  0  0  0  0  0  0  0  0  0  0  0
   -6.0358   -2.2914    0.6122 C   0  0  0  0  0  0  0  0  0  0  0  0
   -7.3026   -0.3260    0.4135 C   0  0  0  0  0  0  0  0  0  0  0  0
   -3.6958    0.5235   -0.0844 C   0  0  0  0  0  0  0  0  0  0  0  0
   -3.5957    1.4922   -1.0830 C   0  0  0  0  0  0  0  0  0  0  0  0
   -2.6121    0.2759    0.7582 C   0  0  0  0  0  0  0  0  0  0  0  0
   -1.3285    1.9660   -0.3961 C   0  0  0  0  0  0  0  0  0  0  0  0
   -2.4121    2.2136   -1.2388 C   0  0  0  0  0  0  0  0  0  0  0  0
   -1.4285    0.9971    0.6025 C   0  0  0  0  0  0  0  0  0  0  0  0
    1.1257    2.2446   -0.2713 C   0  0  0  0  0  0  0  0  0  0  0  0
    2.1629    3.1684    0.1463 C   0  0  0  0  0  0  0  0  0  0  0  0
    2.7194    0.5305   -0.0895 C   0  0  0  0  0  0  0  0  0  0  0  0
    2.9875   -0.9199   -0.2136 C   0  0  0  0  0  0  0  0  0  0  0  0
    3.7085    1.3612    0.3098 C   0  0  0  0  0  0  0  0  0  0  0  0
    2.5387   -3.1781    0.3999 C   0  0  0  0  0  0  0  0  0  0  0  0
    2.2459   -1.8216    0.5566 C   0  0  0  0  0  0  0  0  0  0  0  0
    3.5152   -3.6473   -0.4716 C   0  0  0  0  0  0  0  0  0  0  0  0
    3.9738   -1.3638   -1.0964 C   0  0  0  0  0  0  0  0  0  0  0  0
    4.1762    3.7847    0.7943 C   0  0  0  0  0  0  0  0  0  0  0  0
    4.2518   -2.7291   -1.2386 C   0  0  0  0  0  0  0  0  0  0  0  0
    3.3144    4.8581    0.7116 C   0  0  0  0  0  0  0  0  0  0  0  0
    3.4782   -5.0496   -0.3162 C   0  0  0  0  0  0  0  0  0  0  0  0
   -4.8395   -1.9053   -1.1425 H   0  0  0  0  0  0  0  0  0  0  0  0
   -3.9166   -2.0874    0.3587 H   0  0  0  0  0  0  0  0  0  0  0  0
   -6.1995    1.4693    0.0191 H   0  0  0  0  0  0  0  0  0  0  0  0
   -6.3081    0.3557   -1.3684 H   0  0  0  0  0  0  0  0  0  0  0  0
   -6.0623   -3.3663    0.4073 H   0  0  0  0  0  0  0  0  0  0  0  0
   -5.9909   -2.1614    1.7003 H   0  0  0  0  0  0  0  0  0  0  0  0
   -7.2656   -0.1841    1.5004 H   0  0  0  0  0  0  0  0  0  0  0  0
   -8.2671    0.0547    0.0625 H   0  0  0  0  0  0  0  0  0  0  0  0
   -4.4142    1.7011   -1.7659 H   0  0  0  0  0  0  0  0  0  0  0  0
   -2.6773   -0.4619    1.5538 H   0  0  0  0  0  0  0  0  0  0  0  0
   -2.3444    2.9632   -2.0233 H   0  0  0  0  0  0  0  0  0  0  0  0
   -0.6134    0.8000    1.2935 H   0  0  0  0  0  0  0  0  0  0  0  0
   -0.2766    3.6592   -0.8076 H   0  0  0  0  0  0  0  0  0  0  0  0
    4.7163    1.0416    0.5484 H   0  0  0  0  0  0  0  0  0  0  0  0
    1.4771   -1.4932    1.2490 H   0  0  0  0  0  0  0  0  0  0  0  0
    4.5426   -0.6568   -1.6973 H   0  0  0  0  0  0  0  0  0  0  0  0
    5.2181    3.7034    1.0716 H   0  0  0  0  0  0  0  0  0  0  0  0
    5.0201   -3.0628   -1.9293 H   0  0  0  0  0  0  0  0  0  0  0  0
    3.5356    5.8939    0.9241 H   0  0  0  0  0  0  0  0  0  0  0  0
    1.2751   -4.3429    1.6796 H   0  0  0  0  0  0  0  0  0  0  0  0
    4.0804   -5.7965   -0.8141 H   0  0  0  0  0  0  0  0  0  0  0  0
  1 11  1  0  0  0  0
  1 12  1  0  0  0  0
  2  9  1  0  0  0  0
  2 10  1  0  0  0  0
  2 13  1  0  0  0  0
  3 16  1  0  0  0  0
  3 19  1  0  0  0  0
  3 44  1  0  0  0  0
  4 20  1  0  0  0  0
  4 23  1  0  0  0  0
  4 28  1  0  0  0  0
  5 19  2  0  0  0  0
  5 21  1  0  0  0  0
  6 20  2  0  0  0  0
  6 30  1  0  0  0  0
  7  8  1  0  0  0  0
  7 24  1  0  0  0  0
  7 51  1  0  0  0  0
  8 31  2  0  0  0  0
  9 11  1  0  0  0  0
  9 32  1  0  0  0  0
  9 33  1  0  0  0  0
 10 12  1  0  0  0  0
 10 34  1  0  0  0  0
 10 35  1  0  0  0  0
 11 36  1  0  0  0  0
 11 37  1  0  0  0  0
 12 38  1  0  0  0  0
 12 39  1  0  0  0  0
 13 14  2  0  0  0  0
 13 15  1  0  0  0  0
 14 17  1  0  0  0  0
 14 40  1  0  0  0  0
 15 18  2  0  0  0  0
 15 41  1  0  0  0  0
 16 17  2  0  0  0  0
 16 18  1  0  0  0  0
 17 42  1  0  0  0  0
 18 43  1  0  0  0  0
 19 20  1  0  0  0  0
 21 22  1  0  0  0  0
 21 23  2  0  0  0  0
 22 25  2  0  0  0  0
 22 27  1  0  0  0  0
 23 45  1  0  0  0  0
 24 25  1  0  0  0  0
 24 26  2  0  0  0  0
 25 46  1  0  0  0  0
 26 29  1  0  0  0  0
 26 31  1  0  0  0  0
 27 29  2  0  0  0  0
 27 47  1  0  0  0  0
 28 30  2  0  0  0  0
 28 48  1  0  0  0  0
 29 49  1  0  0  0  0
 30 50  1  0  0  0  0
 31 52  1  0  0  0  0
M  END
> <PUBCHEM_COMPOUND_CID>
59473233

> <PUBCHEM_CONFORMER_RMSD>
0.8

> <PUBCHEM_CONFORMER_DIVERSEORDER>
1
46
89
77
71
74
17
35
25
30
34
36
85
92
70
65
7
68
18
41
16
62
75
50
59
33
47
31
60
73
79
8
78
32
3
51
82
19
88
84
55
11
14
83
94
10
23
54
37
48
57
6
38
15
28
49
53
90
64
43
72
20
12
63
69
67
61
40
44
91
26
80
93
95
76
81
9
87
96
21
4
24
29
52
5
86
22
56
2
27
42
13
58
39
45
66

> <PUBCHEM_MMFF94_PARTIAL_CHARGES>
43
1 -0.56
10 0.37
11 0.28
12 0.28
13 0.1
14 -0.15
15 -0.15
16 0.1
17 -0.15
18 -0.15
19 0.58
2 -0.84
20 0.1
21 0.14
22 0.03
23 -0.18
24 -0.15
25 -0.15
27 -0.15
28 -0.3
29 -0.15
3 -0.55
30 0.08
31 0.14
4 0.33
40 0.15
41 0.15
42 0.15
43 0.15
44 0.4
45 0.15
46 0.15
47 0.15
48 0.15
49 0.15
5 -0.62
50 0.15
51 0.27
52 0.15
6 -0.57
7 0.3
8 -0.71
9 0.37

> <PUBCHEM_EFFECTIVE_ROTOR_COUNT>
5.2

> <PUBCHEM_PHARMACOPHORE_FEATURES>
13
1 1 acceptor
1 2 cation
1 3 donor
1 7 donor
1 8 acceptor
3 3 5 19 cation
3 4 6 20 cation
5 4 6 20 28 30 rings
5 7 8 24 26 31 rings
6 1 2 9 10 11 12 rings
6 13 14 15 16 17 18 rings
6 22 24 25 26 27 29 rings
6 4 5 19 20 21 23 rings

> <PUBCHEM_HEAVY_ATOM_COUNT>
31

> <PUBCHEM_ATOM_DEF_STEREO_COUNT>
0

> <PUBCHEM_ATOM_UDEF_STEREO_COUNT>
0

> <PUBCHEM_BOND_DEF_STEREO_COUNT>
0

> <PUBCHEM_BOND_UDEF_STEREO_COUNT>
0

> <PUBCHEM_ISOTOPIC_ATOM_COUNT>
0

> <PUBCHEM_COMPONENT_COUNT>
1

> <PUBCHEM_CACTVS_TAUTO_COUNT>
4

> <PUBCHEM_CONFORMER_ID>
038B7D5100000001

> <PUBCHEM_MMFF94_ENERGY>
105.753

> <PUBCHEM_FEATURE_SELFOVERLAP>
66.217

> <PUBCHEM_SHAPE_FINGERPRINT>
10074138 170 17333056112606605672
10169797 241 18186528716968397331
10316853 100 18338802342211313780
10951579 204 17168972406486012517
11070050 100 17772739701009609760
11093857 51 17896339063041512038
11409948 41 18197477706732637767
114674 6 18335139799837494850
117089 54 17768541486157725847
11719270 70 18267298905965119376
12107183 9 17983590615423294609
12633046 712 18120086191495991293
12788726 201 17112126344652816832
12969540 37 18336543829105314812
13150687 139 17679326293343073556
13533116 47 18341899614837740305
1361 2 18265615566515656393
13692114 37 17981599683195459576
13785724 45 18127419942848380135
138480 1 18339358540270352392
13955234 65 18342734152209948560
13989917 61 18337115674232178115
14556957 393 13551733159993052415
14863182 85 18262804110973337068
15320467 1 18410012113731700187
15328684 2 16988021448665915931
15400415 2 18050848016361346673
15419008 42 17970601109558964165
15776043 110 18052002250335811937
15803439 3 16957930146667695420
15911013 46 18336835204002650505
15927050 60 18126285487335685247
16990366 60 18336825282818763674
16993438 75 17470165224694530802
17492 89 18340204094660819181
17859628 70 18411699893764591228
17909252 39 18336270058914759219
19246450 95 17263300427681721561
19301676 85 17545029413226932719
19311894 1 17690281504361805915
19315958 150 18337393851132226553
19319366 153 18129093609683215573
19427546 62 17978510059352886584
20028762 73 18270958080899227854
20505436 4 17559676333189076236
20775438 99 18264196071483333651
21133410 32 16447619140965836994
21133410 38 17983585384084834871
21197605 99 18049443939611366955
21703447 108 18413385432226604537
23559900 14 18338226051804712317
23569914 152 17544719402713750837
23845131 108 17837204145124268032
239999 70 18130516313526438964
249057 25 12685357562422455893
25222932 49 18413106134919541870
3178227 256 18341327890445617760
32027 91 18265325119763870533
3421961 26 18411699867921051428
404807 14 18122632643915729747
4073 2 18265057019426134985
437795 96 17972612253544242947
4403749 210 17617091846828249049
4461854 278 17615423883715530275
4616759 239 16613889230991676866
463206 1 17975699381019169147
4874694 18 18265320876578697041
49967989 163 17259349865297222702
5309563 4 18268433425686383846
5776283 40 18265067984435456886
613672 6 17905861722622311958
6441014 3 17905888072384764931
6673363 416 17983302526977812710
6697151 62 18055613063358704357
6700243 42 16732700524589642471
70251023 43 18337115570635420385
7970288 3 18050286968582454871
86090 222 18335990860618673592
9658208 31 17765997590683202872
9777508 108 17332799956156344296
9831232 110 18333735724021568637

> <PUBCHEM_SHAPE_MULTIPOLES>
597.23
14.58
7.61
0.97
32.12
3.17
-0.13
7.98
0.47
-14.55
1.36
-0.2
0.05
2.19

> <PUBCHEM_SHAPE_SELFOVERLAP>
1343.306

> <PUBCHEM_SHAPE_VOLUME>
315

> <PUBCHEM_COORDINATE_TYPE>
2
5
10

$$$$
71721648
  -OEChem-11282412143D

 79 83  0     1  0  0  0  0  0999 V2000
   -5.9946   -1.7070    1.7415 Cl  0  0  0  0  0  0  0  0  0  0  0  0
    1.9211   -4.2813    0.7867 O   0  0  0  0  0  0  0  0  0  0  0  0
    1.3802    6.2892    1.8576 O   0  0  0  0  0  0  0  0  0  0  0  0
   -5.6016    2.9412   -1.1698 O   0  0  0  0  0  0  0  0  0  0  0  0
    3.9713    0.7937   -0.4303 N   0  0  0  0  0  0  0  0  0  0  0  0
    3.3101    3.3721    0.6979 N   0  0  0  0  0  0  0  0  0  0  0  0
   -0.6774   -3.4970    0.2401 N   0  0  0  0  0  0  0  0  0  0  0  0
   -2.2504   -1.7639    0.3282 N   0  0  0  0  0  0  0  0  0  0  0  0
   -2.7738   -3.9569    1.1789 N   0  0  0  0  0  0  0  0  0  0  0  0
   -3.8486   -0.0241    0.4266 N   0  0  0  0  0  0  0  0  0  0  0  0
   -4.7132    1.0880   -2.2440 N   0  0  0  0  0  0  0  0  0  0  0  0
    4.6879   -0.0737   -1.3633 C   0  0  1  0  0  0  0  0  0  0  0  0
    5.6726   -0.9901   -0.6238 C   0  0  0  0  0  0  0  0  0  0  0  0
    3.7202   -0.8290   -2.2898 C   0  0  0  0  0  0  0  0  0  0  0  0
    4.9100    1.5060    0.4453 C   0  0  0  0  0  0  0  0  0  0  0  0
    3.1203    1.7467   -1.1532 C   0  0  0  0  0  0  0  0  0  0  0  0
    5.0613   -2.0129    0.3349 C   0  0  0  0  0  0  0  0  0  0  0  0
    4.1605    2.4191    1.4216 C   0  0  0  0  0  0  0  0  0  0  0  0
    2.3706    2.6588   -0.1760 C   0  0  0  0  0  0  0  0  0  0  0  0
    2.5902   -1.5558   -1.5975 C   0  0  0  0  0  0  0  0  0  0  0  0
    4.2174   -3.0785   -0.3625 C   0  0  0  0  0  0  0  0  0  0  0  0
    2.8237   -2.6081   -0.6938 C   0  0  0  0  0  0  0  0  0  0  0  0
    2.5944    4.2410    1.6300 C   0  0  0  0  0  0  0  0  0  0  0  0
    1.2659   -1.1720   -1.8746 C   0  0  0  0  0  0  0  0  0  0  0  0
    1.7278   -3.2483   -0.0890 C   0  0  0  0  0  0  0  0  0  0  0  0
    0.4208   -2.8535   -0.3711 C   0  0  0  0  0  0  0  0  0  0  0  0
    0.1897   -1.8148   -1.2645 C   0  0  0  0  0  0  0  0  0  0  0  0
    2.0822    5.4838    0.9199 C   0  0  0  0  0  0  0  0  0  0  0  0
    2.0612   -3.9401    2.1620 C   0  0  0  0  0  0  0  0  0  0  0  0
   -1.9629   -3.0512    0.5998 C   0  0  0  0  0  0  0  0  0  0  0  0
   -3.4901   -1.3697    0.6862 C   0  0  0  0  0  0  0  0  0  0  0  0
   -3.9975   -3.4955    1.5108 C   0  0  0  0  0  0  0  0  0  0  0  0
   -4.4151   -2.1995    1.2864 C   0  0  0  0  0  0  0  0  0  0  0  0
   -3.0986    1.1614    0.3642 C   0  0  0  0  0  0  0  0  0  0  0  0
   -3.4867    2.2115   -0.4677 C   0  0  0  0  0  0  0  0  0  0  0  0
   -1.9519    1.2808    1.1493 C   0  0  0  0  0  0  0  0  0  0  0  0
   -2.7281    3.3811   -0.5144 C   0  0  0  0  0  0  0  0  0  0  0  0
   -1.1931    2.4504    1.1025 C   0  0  0  0  0  0  0  0  0  0  0  0
   -4.6800    2.1185   -1.2994 C   0  0  0  0  0  0  0  0  0  0  0  0
   -1.5813    3.5006    0.2707 C   0  0  0  0  0  0  0  0  0  0  0  0
   -5.8144    0.8791   -3.1565 C   0  0  0  0  0  0  0  0  0  0  0  0
    5.3115    0.5504   -2.0218 H   0  0  0  0  0  0  0  0  0  0  0  0
    6.4610   -0.4271   -0.1127 H   0  0  0  0  0  0  0  0  0  0  0  0
    6.2296   -1.5517   -1.3886 H   0  0  0  0  0  0  0  0  0  0  0  0
    4.2822   -1.5684   -2.8772 H   0  0  0  0  0  0  0  0  0  0  0  0
    3.3189   -0.1470   -3.0508 H   0  0  0  0  0  0  0  0  0  0  0  0
    5.6305    2.0957   -0.1373 H   0  0  0  0  0  0  0  0  0  0  0  0
    5.4715    0.8226    1.0884 H   0  0  0  0  0  0  0  0  0  0  0  0
    2.3536    1.2668   -1.7593 H   0  0  0  0  0  0  0  0  0  0  0  0
    3.7230    2.3642   -1.8339 H   0  0  0  0  0  0  0  0  0  0  0  0
    4.4900   -1.5150    1.1269 H   0  0  0  0  0  0  0  0  0  0  0  0
    5.8959   -2.5239    0.8325 H   0  0  0  0  0  0  0  0  0  0  0  0
    3.5625    1.8112    2.1145 H   0  0  0  0  0  0  0  0  0  0  0  0
    4.9022    2.9626    2.0199 H   0  0  0  0  0  0  0  0  0  0  0  0
    1.7767    3.3571   -0.7741 H   0  0  0  0  0  0  0  0  0  0  0  0
    1.6730    2.0519    0.4145 H   0  0  0  0  0  0  0  0  0  0  0  0
    4.1974   -3.9647    0.2807 H   0  0  0  0  0  0  0  0  0  0  0  0
    4.7055   -3.4188   -1.2848 H   0  0  0  0  0  0  0  0  0  0  0  0
    1.7788    3.7183    2.1452 H   0  0  0  0  0  0  0  0  0  0  0  0
    3.2692    4.5821    2.4271 H   0  0  0  0  0  0  0  0  0  0  0  0
    1.0566   -0.3831   -2.5930 H   0  0  0  0  0  0  0  0  0  0  0  0
   -0.8070   -1.5034   -1.5580 H   0  0  0  0  0  0  0  0  0  0  0  0
    1.3868    5.2508    0.1102 H   0  0  0  0  0  0  0  0  0  0  0  0
    2.9114    6.0718    0.5118 H   0  0  0  0  0  0  0  0  0  0  0  0
   -0.4717   -4.4276    0.5910 H   0  0  0  0  0  0  0  0  0  0  0  0
    1.0721    7.0793    1.3817 H   0  0  0  0  0  0  0  0  0  0  0  0
    2.2986   -4.8514    2.7177 H   0  0  0  0  0  0  0  0  0  0  0  0
    1.1254   -3.5292    2.5534 H   0  0  0  0  0  0  0  0  0  0  0  0
    2.8722   -3.2209    2.3118 H   0  0  0  0  0  0  0  0  0  0  0  0
   -4.6460   -4.2312    1.9767 H   0  0  0  0  0  0  0  0  0  0  0  0
   -4.8122    0.0683    0.1182 H   0  0  0  0  0  0  0  0  0  0  0  0
   -1.6357    0.4851    1.8186 H   0  0  0  0  0  0  0  0  0  0  0  0
   -3.0181    4.2075   -1.1585 H   0  0  0  0  0  0  0  0  0  0  0  0
   -0.3106    2.5469    1.7263 H   0  0  0  0  0  0  0  0  0  0  0  0
   -0.9943    4.4132    0.2378 H   0  0  0  0  0  0  0  0  0  0  0  0
   -3.9339    0.4378   -2.2906 H   0  0  0  0  0  0  0  0  0  0  0  0
   -6.4912    0.1451   -2.7125 H   0  0  0  0  0  0  0  0  0  0  0  0
   -5.4154    0.4895   -4.0959 H   0  0  0  0  0  0  0  0  0  0  0  0
   -6.3511    1.8137   -3.3363 H   0  0  0  0  0  0  0  0  0  0  0  0
  1 33  1  0  0  0  0
  2 25  1  0  0  0  0
  2 29  1  0  0  0  0
  3 28  1  0  0  0  0
  3 66  1  0  0  0  0
  4 39  2  0  0  0  0
  5 12  1  0  0  0  0
  5 15  1  0  0  0  0
  5 16  1  0  0  0  0
  6 18  1  0  0  0  0
  6 19  1  0  0  0  0
  6 23  1  0  0  0  0
  7 26  1  0  0  0  0
  7 30  1  0  0  0  0
  7 65  1  0  0  0  0
  8 30  1  0  0  0  0
  8 31  2  0  0  0  0
  9 30  2  0  0  0  0
  9 32  1  0  0  0  0
 10 31  1  0  0  0  0
 10 34  1  0  0  0  0
 10 71  1  0  0  0  0
 11 39  1  0  0  0  0
 11 41  1  0  0  0  0
 11 76  1  0  0  0  0
 12 13  1  0  0  0  0
 12 14  1  0  0  0  0
 12 42  1  0  0  0  0
 13 17  1  0  0  0  0
 13 43  1  0  0  0  0
 13 44  1  0  0  0  0
 14 20  1  0  0  0  0
 14 45  1  0  0  0  0
 14 46  1  0  0  0  0
 15 18  1  0  0  0  0
 15 47  1  0  0  0  0
 15 48  1  0  0  0  0
 16 19  1  0  0  0  0
 16 49  1  0  0  0  0
 16 50  1  0  0  0  0
 17 21  1  0  0  0  0
 17 51  1  0  0  0  0
 17 52  1  0  0  0  0
 18 53  1  0  0  0  0
 18 54  1  0  0  0  0
 19 55  1  0  0  0  0
 19 56  1  0  0  0  0
 20 22  2  0  0  0  0
 20 24  1  0  0  0  0
 21 22  1  0  0  0  0
 21 57  1  0  0  0  0
 21 58  1  0  0  0  0
 22 25  1  0  0  0  0
 23 28  1  0  0  0  0
 23 59  1  0  0  0  0
 23 60  1  0  0  0  0
 24 27  2  0  0  0  0
 24 61  1  0  0  0  0
 25 26  2  0  0  0  0
 26 27  1  0  0  0  0
 27 62  1  0  0  0  0
 28 63  1  0  0  0  0
 28 64  1  0  0  0  0
 29 67  1  0  0  0  0
 29 68  1  0  0  0  0
 29 69  1  0  0  0  0
 31 33  1  0  0  0  0
 32 33  2  0  0  0  0
 32 70  1  0  0  0  0
 34 35  1  0  0  0  0
 34 36  2  0  0  0  0
 35 37  2  0  0  0  0
 35 39  1  0  0  0  0
 36 38  1  0  0  0  0
 36 72  1  0  0  0  0
 37 40  1  0  0  0  0
 37 73  1  0  0  0  0
 38 40  2  0  0  0  0
 38 74  1  0  0  0  0
 40 75  1  0  0  0  0
 41 77  1  0  0  0  0
 41 78  1  0  0  0  0
 41 79  1  0  0  0  0
M  END
> <PUBCHEM_COMPOUND_CID>
71721648

> <PUBCHEM_CONFORMER_RMSD>
1.2

> <PUBCHEM_CONFORMER_DIVERSEORDER>
1
90
54
48
20
57
42
94
28
107
12
92
22
63
46
93
62
13
106
85
39
24
11
37
58
10
60
49
82
104
103
64
102
29
101
35
51
36
79
97
23
40
69
45
2
47
16
89
84
66
27
21
100
56
98
80
53
17
15
67
77
14
78
38
61
87
99
74
59
32
34
105
44
3
81
31
88
76
71
68
43
50
30
86
72
96
95
70
33
18
41
25
8
65
55
73
91
52
9
83
7
19
4
26
75
5
6

> <PUBCHEM_MMFF94_PARTIAL_CHARGES>
50
1 -0.18
10 -0.6
11 -0.73
12 0.27
14 0.14
15 0.27
16 0.27
18 0.27
19 0.27
2 -0.36
20 -0.14
21 0.14
22 -0.14
23 0.27
24 -0.15
25 0.08
26 0.1
27 -0.15
28 0.28
29 0.28
3 -0.68
30 0.72
31 0.41
32 0.16
33 0.18
34 0.1
35 0.09
36 -0.15
37 -0.15
38 -0.15
39 0.54
4 -0.57
40 -0.15
41 0.3
5 -0.81
6 -0.81
61 0.15
62 0.15
65 0.4
66 0.4
7 -0.6
70 0.15
71 0.4
72 0.15
73 0.15
74 0.15
75 0.15
76 0.37
8 -0.62
9 -0.62

> <PUBCHEM_EFFECTIVE_ROTOR_COUNT>
12.2

> <PUBCHEM_PHARMACOPHORE_FEATURES>
15
1 10 donor
1 11 donor
1 2 acceptor
1 3 acceptor
1 3 donor
1 4 acceptor
1 5 cation
1 6 cation
1 7 donor
4 7 8 9 30 cation
6 20 22 24 25 26 27 rings
6 34 35 36 37 38 40 rings
6 5 6 15 16 18 19 rings
6 8 9 30 31 32 33 rings
7 12 13 14 17 20 21 22 rings

> <PUBCHEM_HEAVY_ATOM_COUNT>
41

> <PUBCHEM_ATOM_DEF_STEREO_COUNT>
1

> <PUBCHEM_ATOM_UDEF_STEREO_COUNT>
0

> <PUBCHEM_BOND_DEF_STEREO_COUNT>
0

> <PUBCHEM_BOND_UDEF_STEREO_COUNT>
0

> <PUBCHEM_ISOTOPIC_ATOM_COUNT>
0

> <PUBCHEM_COMPONENT_COUNT>
1

> <PUBCHEM_CACTVS_TAUTO_COUNT>
38

> <PUBCHEM_CONFORMER_ID>
044662B000000001

> <PUBCHEM_MMFF94_ENERGY>
143.8063

> <PUBCHEM_FEATURE_SELFOVERLAP>
76.134

> <PUBCHEM_SHAPE_FINGERPRINT>
10256941 240 17970603372726972141
10290309 65 17980477081323204408
10439779 11 18047184155600924602
10462385 53 17694202767028355533
12925494 130 18335419024367399691
13561361 72 18266745872874445400
14725015 67 18337114591308841938
15001296 14 18192433201910239706
15320467 1 18339932631110282088
15538507 32 18339351973708377967
16067689 391 17339592313864875222
16067690 210 17182199852915321208
19246450 95 17981854705848845000
20764821 26 18050579438817510960
392239 28 18267041589973824283
4015057 19 18340198584249459669
437795 96 18193833967155355507
463206 1 18268719303057644984
5047190 48 17332529480269027600
508706 21 18337959982485445700
6086070 43 18411415077620335998
6176135 31 17981886655308803864
6371009 1 17756697538723882407

> <PUBCHEM_SHAPE_MULTIPOLES>
793.16
12.82
7.99
2.16
6.05
5.92
0.9
0.04
2.68
-2.45
-4.83
1.55
0.25
4.71

> <PUBCHEM_SHAPE_SELFOVERLAP>
1684.406

> <PUBCHEM_SHAPE_VOLUME>
439.2

> <PUBCHEM_COORDINATE_TYPE>
2
5
10

$$$$
78323434
  -OEChem-11282412143D

 80 84  0     0  0  0  0  0  0999 V2000
   12.5031    1.0973    0.6194 O   0  0  0  0  0  0  0  0  0  0  0  0
   -0.2667   -0.3696   -0.5184 O   0  0  0  0  0  0  0  0  0  0  0  0
   -4.2725   -2.5282    0.4644 O   0  0  0  0  0  0  0  0  0  0  0  0
   -4.6689   -1.2384   -1.9513 O   0  0  0  0  0  0  0  0  0  0  0  0
   -5.6104    3.5911   -1.5157 O   0  0  0  0  0  0  0  0  0  0  0  0
   -2.6377   -2.9723   -2.7938 O   0  0  0  0  0  0  0  0  0  0  0  0
    8.9301    0.7869   -0.2328 N   0  0  0  0  0  0  0  0  0  0  0  0
    0.4576   -2.0240    0.9855 N   0  0  0  0  0  0  0  0  0  0  0  0
   -5.3462    2.9093    0.6482 N   0  0  0  0  0  0  0  0  0  0  0  0
   -0.6563   -3.7377    2.1751 N   0  0  0  0  0  0  0  0  0  0  0  0
   -5.8317    5.1537    0.2003 N   0  0  0  0  0  0  0  0  0  0  0  0
    6.0172    1.0987   -0.3389 C   0  0  0  0  0  0  0  0  0  0  0  0
    6.7881    1.0110    0.9875 C   0  0  0  0  0  0  0  0  0  0  0  0
    6.8113    0.3959   -1.4511 C   0  0  0  0  0  0  0  0  0  0  0  0
    8.2229    1.5200    0.8263 C   0  0  0  0  0  0  0  0  0  0  0  0
    8.2451    0.9273   -1.5252 C   0  0  0  0  0  0  0  0  0  0  0  0
    4.6025    0.5658   -0.2182 C   0  0  0  0  0  0  0  0  0  0  0  0
   10.3151    1.2465   -0.3356 C   0  0  0  0  0  0  0  0  0  0  0  0
    4.3865   -0.7709    0.1166 C   0  0  0  0  0  0  0  0  0  0  0  0
    3.5172    1.4131   -0.4420 C   0  0  0  0  0  0  0  0  0  0  0  0
   11.1659    0.6383    0.7679 C   0  0  0  0  0  0  0  0  0  0  0  0
    3.0852   -1.2605    0.2275 C   0  0  0  0  0  0  0  0  0  0  0  0
    2.2159    0.9235   -0.3310 C   0  0  0  0  0  0  0  0  0  0  0  0
    1.9999   -0.4134    0.0036 C   0  0  0  0  0  0  0  0  0  0  0  0
    0.6132   -0.9359    0.1212 C   0  0  0  0  0  0  0  0  0  0  0  0
   -0.7240   -2.7014    1.3095 C   0  0  0  0  0  0  0  0  0  0  0  0
   -5.0913    1.5507    0.3842 C   0  0  0  0  0  0  0  0  0  0  0  0
   -4.8887    0.9007    1.6095 C   0  0  0  0  0  0  0  0  0  0  0  0
   -4.5406   -1.1922    0.4310 C   0  0  0  0  0  0  0  0  0  0  0  0
   -5.0164    0.8279   -0.8240 C   0  0  0  0  0  0  0  0  0  0  0  0
   -4.6115   -0.4825    1.6304 C   0  0  0  0  0  0  0  0  0  0  0  0
   -4.7406   -0.5430   -0.7794 C   0  0  0  0  0  0  0  0  0  0  0  0
   -5.0217    1.8698    2.6263 C   0  0  0  0  0  0  0  0  0  0  0  0
   -1.8964   -2.2618    0.7161 C   0  0  0  0  0  0  0  0  0  0  0  0
   -5.2987    3.0713    2.0239 C   0  0  0  0  0  0  0  0  0  0  0  0
   -3.0752   -2.9287    1.0312 C   0  0  0  0  0  0  0  0  0  0  0  0
   -5.6062    3.8986   -0.3320 C   0  0  0  0  0  0  0  0  0  0  0  0
   -3.0459   -3.9996    1.9177 C   0  0  0  0  0  0  0  0  0  0  0  0
   -1.8222   -4.3614    2.4574 C   0  0  0  0  0  0  0  0  0  0  0  0
   -3.6819   -0.8202   -2.8906 C   0  0  0  0  0  0  0  0  0  0  0  0
   -3.2128   -2.0242   -3.6847 C   0  0  0  0  0  0  0  0  0  0  0  0
   -6.1130    6.3029   -0.6329 C   0  0  0  0  0  0  0  0  0  0  0  0
   -2.1993   -4.1348   -3.4829 C   0  0  0  0  0  0  0  0  0  0  0  0
    5.9588    2.1634   -0.6080 H   0  0  0  0  0  0  0  0  0  0  0  0
    6.8183   -0.0226    1.3560 H   0  0  0  0  0  0  0  0  0  0  0  0
    6.2764    1.6013    1.7580 H   0  0  0  0  0  0  0  0  0  0  0  0
    6.3164    0.5473   -2.4185 H   0  0  0  0  0  0  0  0  0  0  0  0
    6.8440   -0.6885   -1.2844 H   0  0  0  0  0  0  0  0  0  0  0  0
    8.7208    1.3917    1.7930 H   0  0  0  0  0  0  0  0  0  0  0  0
    8.2057    2.5971    0.6124 H   0  0  0  0  0  0  0  0  0  0  0  0
    8.7761    0.3528   -2.2941 H   0  0  0  0  0  0  0  0  0  0  0  0
    8.2353    1.9760   -1.8503 H   0  0  0  0  0  0  0  0  0  0  0  0
   10.3925    2.3419   -0.3334 H   0  0  0  0  0  0  0  0  0  0  0  0
   10.7564    0.9270   -1.2898 H   0  0  0  0  0  0  0  0  0  0  0  0
    5.2169   -1.4503    0.2875 H   0  0  0  0  0  0  0  0  0  0  0  0
    3.6688    2.4572   -0.7024 H   0  0  0  0  0  0  0  0  0  0  0  0
   11.1675   -0.4552    0.7052 H   0  0  0  0  0  0  0  0  0  0  0  0
   10.8286    0.9332    1.7651 H   0  0  0  0  0  0  0  0  0  0  0  0
    2.9668   -2.3159    0.4529 H   0  0  0  0  0  0  0  0  0  0  0  0
    1.3843    1.6013   -0.5044 H   0  0  0  0  0  0  0  0  0  0  0  0
   13.0266    0.6863    1.3284 H   0  0  0  0  0  0  0  0  0  0  0  0
    1.2641   -2.3755    1.4923 H   0  0  0  0  0  0  0  0  0  0  0  0
   -5.1781    1.3095   -1.7818 H   0  0  0  0  0  0  0  0  0  0  0  0
   -4.4660   -0.9843    2.5837 H   0  0  0  0  0  0  0  0  0  0  0  0
   -4.9274    1.7134    3.6923 H   0  0  0  0  0  0  0  0  0  0  0  0
   -5.4631    4.0260    2.5005 H   0  0  0  0  0  0  0  0  0  0  0  0
   -1.9655   -1.4582    0.0043 H   0  0  0  0  0  0  0  0  0  0  0  0
   -3.9498   -4.5373    2.1813 H   0  0  0  0  0  0  0  0  0  0  0  0
   -1.7456   -5.1898    3.1540 H   0  0  0  0  0  0  0  0  0  0  0  0
   -4.1194   -0.0743   -3.5626 H   0  0  0  0  0  0  0  0  0  0  0  0
   -2.8238   -0.3763   -2.3697 H   0  0  0  0  0  0  0  0  0  0  0  0
   -5.7873    5.3390    1.1933 H   0  0  0  0  0  0  0  0  0  0  0  0
   -2.4711   -1.7157   -4.4296 H   0  0  0  0  0  0  0  0  0  0  0  0
   -4.0667   -2.4875   -4.1925 H   0  0  0  0  0  0  0  0  0  0  0  0
   -5.2069    6.9111   -0.6916 H   0  0  0  0  0  0  0  0  0  0  0  0
   -6.9101    6.8823   -0.1609 H   0  0  0  0  0  0  0  0  0  0  0  0
   -6.4184    5.9979   -1.6368 H   0  0  0  0  0  0  0  0  0  0  0  0
   -1.7643   -4.8230   -2.7531 H   0  0  0  0  0  0  0  0  0  0  0  0
   -1.4328   -3.8777   -4.2203 H   0  0  0  0  0  0  0  0  0  0  0  0
   -3.0424   -4.6321   -3.9721 H   0  0  0  0  0  0  0  0  0  0  0  0
  1 21  1  0  0  0  0
  1 61  1  0  0  0  0
  2 25  2  0  0  0  0
  3 29  1  0  0  0  0
  3 36  1  0  0  0  0
  4 32  1  0  0  0  0
  4 40  1  0  0  0  0
  5 37  2  0  0  0  0
  6 41  1  0  0  0  0
  6 43  1  0  0  0  0
  7 15  1  0  0  0  0
  7 16  1  0  0  0  0
  7 18  1  0  0  0  0
  8 25  1  0  0  0  0
  8 26  1  0  0  0  0
  8 62  1  0  0  0  0
  9 27  1  0  0  0  0
  9 35  1  0  0  0  0
  9 37  1  0  0  0  0
 10 26  2  0  0  0  0
 10 39  1  0  0  0  0
 11 37  1  0  0  0  0
 11 42  1  0  0  0  0
 11 72  1  0  0  0  0
 12 13  1  0  0  0  0
 12 14  1  0  0  0  0
 12 17  1  0  0  0  0
 12 44  1  0  0  0  0
 13 15  1  0  0  0  0
 13 45  1  0  0  0  0
 13 46  1  0  0  0  0
 14 16  1  0  0  0  0
 14 47  1  0  0  0  0
 14 48  1  0  0  0  0
 15 49  1  0  0  0  0
 15 50  1  0  0  0  0
 16 51  1  0  0  0  0
 16 52  1  0  0  0  0
 17 19  2  0  0  0  0
 17 20  1  0  0  0  0
 18 21  1  0  0  0  0
 18 53  1  0  0  0  0
 18 54  1  0  0  0  0
 19 22  1  0  0  0  0
 19 55  1  0  0  0  0
 20 23  2  0  0  0  0
 20 56  1  0  0  0  0
 21 57  1  0  0  0  0
 21 58  1  0  0  0  0
 22 24  2  0  0  0  0
 22 59  1  0  0  0  0
 23 24  1  0  0  0  0
 23 60  1  0  0  0  0
 24 25  1  0  0  0  0
 26 34  1  0  0  0  0
 27 28  1  0  0  0  0
 27 30  2  0  0  0  0
 28 31  2  0  0  0  0
 28 33  1  0  0  0  0
 29 31  1  0  0  0  0
 29 32  2  0  0  0  0
 30 32  1  0  0  0  0
 30 63  1  0  0  0  0
 31 64  1  0  0  0  0
 33 35  2  0  0  0  0
 33 65  1  0  0  0  0
 34 36  2  0  0  0  0
 34 67  1  0  0  0  0
 35 66  1  0  0  0  0
 36 38  1  0  0  0  0
 38 39  2  0  0  0  0
 38 68  1  0  0  0  0
 39 69  1  0  0  0  0
 40 41  1  0  0  0  0
 40 70  1  0  0  0  0
 40 71  1  0  0  0  0
 41 73  1  0  0  0  0
 41 74  1  0  0  0  0
 42 75  1  0  0  0  0
 42 76  1  0  0  0  0
 42 77  1  0  0  0  0
 43 78  1  0  0  0  0
 43 79  1  0  0  0  0
 43 80  1  0  0  0  0
M  END
> <PUBCHEM_COMPOUND_CID>
78323434

> <PUBCHEM_CONFORMER_RMSD>
1.4

> <PUBCHEM_CONFORMER_DIVERSEORDER>
1
9
14
13
29
28
30
27
15
33
18
21
7
10
17
8
23
11
24
19
34
25
12
31
5
2
16
32
26
20
6
3
4
22

> <PUBCHEM_MMFF94_PARTIAL_CHARGES>
54
1 -0.68
10 -0.62
11 -0.73
12 0.14
15 0.27
16 0.27
17 -0.14
18 0.27
19 -0.15
2 -0.57
20 -0.15
21 0.28
22 -0.15
23 -0.15
24 0.09
25 0.54
26 0.43
27 -0.15
29 0.08
3 -0.17
30 -0.15
31 -0.15
32 0.08
33 -0.15
34 -0.15
35 -0.3
36 0.08
37 0.64
38 -0.15
39 0.16
4 -0.36
40 0.28
41 0.28
42 0.3
43 0.28
5 -0.57
55 0.15
56 0.15
59 0.15
6 -0.56
60 0.15
61 0.4
62 0.37
63 0.15
64 0.15
65 0.15
66 0.15
67 0.15
68 0.15
69 0.15
7 -0.81
72 0.37
8 -0.55
9 0.29

> <PUBCHEM_EFFECTIVE_ROTOR_COUNT>
15.2

> <PUBCHEM_PHARMACOPHORE_FEATURES>
15
1 1 acceptor
1 1 donor
1 11 donor
1 2 acceptor
1 3 acceptor
1 4 acceptor
1 5 acceptor
1 6 acceptor
1 7 cation
1 8 donor
5 9 27 28 33 35 rings
6 10 26 34 36 38 39 rings
6 17 19 20 22 23 24 rings
6 27 28 29 30 31 32 rings
6 7 12 13 14 15 16 rings

> <PUBCHEM_HEAVY_ATOM_COUNT>
43

> <PUBCHEM_ATOM_DEF_STEREO_COUNT>
0

> <PUBCHEM_ATOM_UDEF_STEREO_COUNT>
0

> <PUBCHEM_BOND_DEF_STEREO_COUNT>
0

> <PUBCHEM_BOND_UDEF_STEREO_COUNT>
0

> <PUBCHEM_ISOTOPIC_ATOM_COUNT>
0

> <PUBCHEM_COMPONENT_COUNT>
1

> <PUBCHEM_CACTVS_TAUTO_COUNT>
22

> <PUBCHEM_CONFORMER_ID>
04AB1EEA00000001

> <PUBCHEM_MMFF94_ENERGY>
128.3911

> <PUBCHEM_FEATURE_SELFOVERLAP>
76.222

> <PUBCHEM_SHAPE_FINGERPRINT>
10372059 70 18334855040145142256
10533779 1 18188767220228848869
11135926 11 18040148531615097538
11434127 23 18335986449856780199
12104220 1 18334293188827401796
12988421 55 17748824103419256227
13782708 43 9223232923592331550
14040221 137 17749945537050741365
14279260 333 18411982477207043018
14856354 85 18188784953841923335
15064981 113 17560232505989286487
15145344 5 18335695011119776218
15183329 4 17968093179312454930
19304152 47 18187940430771278073
19304671 126 17912371922702627917
19309040 13 18341614750963346343
21133410 32 16343408614226902079
21223535 225 18412545418644161956
21756936 100 18411142446144415171
21792965 68 18334575741445050316
23523787 8 16199571478302884621
44802255 64 17703792531062060895
5080951 261 16343151341043439422

> <PUBCHEM_SHAPE_MULTIPOLES>
824.8
29.52
6.29
2.79
111.13
4.1
-2.08
30.68
1.74
-19.39
0.42
-5.12
-3.16
-0.79

> <PUBCHEM_SHAPE_SELFOVERLAP>
1771.491

> <PUBCHEM_SHAPE_VOLUME>
453.7

> <PUBCHEM_COORDINATE_TYPE>
2
5
10

$$$$
118649391
  -OEChem-11282412143D

 57 61  0     1  0  0  0  0  0999 V2000
    5.1353    1.2735    0.9961 F   0  0  0  0  0  0  0  0  0  0  0  0
    5.6418   -3.2637   -0.2916 F   0  0  0  0  0  0  0  0  0  0  0  0
   -4.7372   -3.5427    1.8523 O   0  0  0  0  0  0  0  0  0  0  0  0
   -4.3599    3.5550   -0.8307 O   0  0  0  0  0  0  0  0  0  0  0  0
    4.2974   -1.3528    1.1840 O   0  0  0  0  0  0  0  0  0  0  0  0
   -2.8693    1.0481   -0.1804 N   0  0  0  0  0  0  0  0  0  0  0  0
   -4.6497   -1.5931    0.6044 N   0  0  0  0  0  0  0  0  0  0  0  0
   -2.3352    4.6386   -0.7678 N   0  0  0  0  0  0  0  0  0  0  0  0
   -0.9723    4.6658   -0.5978 N   0  0  0  0  0  0  0  0  0  0  0  0
    1.0221    3.4996   -0.1294 N   0  0  0  0  0  0  0  0  0  0  0  0
   -4.3138    0.5893   -0.2815 C   0  0  2  0  0  0  0  0  0  0  0  0
   -5.0329    0.6834    1.0738 C   0  0  0  0  0  0  0  0  0  0  0  0
   -4.5406   -0.8793   -0.6667 C   0  0  0  0  0  0  0  0  0  0  0  0
   -4.7772   -0.6709    1.7213 C   0  0  0  0  0  0  0  0  0  0  0  0
   -2.4058    2.3225   -0.3538 C   0  0  0  0  0  0  0  0  0  0  0  0
   -1.8120    0.2215    0.1063 C   0  0  0  0  0  0  0  0  0  0  0  0
   -1.0420    2.3170   -0.1773 C   0  0  0  0  0  0  0  0  0  0  0  0
   -0.6621    0.9843    0.1155 C   0  0  0  0  0  0  0  0  0  0  0  0
   -4.6412   -2.9658    0.7742 C   0  0  0  0  0  0  0  0  0  0  0  0
   -3.1431    3.5106   -0.6658 C   0  0  0  0  0  0  0  0  0  0  0  0
    0.6127    0.3850    0.3889 C   0  0  0  0  0  0  0  0  0  0  0  0
   -0.3311    3.5666   -0.3148 C   0  0  0  0  0  0  0  0  0  0  0  0
    1.0787    0.3072    1.7013 C   0  0  0  0  0  0  0  0  0  0  0  0
    1.3849   -0.1214   -0.6566 C   0  0  0  0  0  0  0  0  0  0  0  0
   -4.5122   -3.7780   -0.4148 C   0  0  0  0  0  0  0  0  0  0  0  0
    2.3169   -0.2772    1.9682 C   0  0  0  0  0  0  0  0  0  0  0  0
    2.6230   -0.7056   -0.3897 C   0  0  0  0  0  0  0  0  0  0  0  0
    3.0889   -0.7836    0.9227 C   0  0  0  0  0  0  0  0  0  0  0  0
   -4.4051   -4.4526   -1.4022 C   0  0  0  0  0  0  0  0  0  0  0  0
   -4.2747   -5.2741   -2.6048 C   0  0  0  0  0  0  0  0  0  0  0  0
    5.3628   -1.0033    0.3713 C   0  0  0  0  0  0  0  0  0  0  0  0
    5.7704    0.3281    0.2899 C   0  0  0  0  0  0  0  0  0  0  0  0
    6.0284   -1.9827   -0.3659 C   0  0  0  0  0  0  0  0  0  0  0  0
    6.8436    0.6804   -0.5286 C   0  0  0  0  0  0  0  0  0  0  0  0
    7.1018   -1.6306   -1.1843 C   0  0  0  0  0  0  0  0  0  0  0  0
    7.5091   -0.2990   -1.2657 C   0  0  0  0  0  0  0  0  0  0  0  0
   -4.7595    1.2319   -1.0451 H   0  0  0  0  0  0  0  0  0  0  0  0
   -6.1095    0.8050    0.9006 H   0  0  0  0  0  0  0  0  0  0  0  0
   -4.6951    1.5124    1.7028 H   0  0  0  0  0  0  0  0  0  0  0  0
   -5.5007   -1.0007   -1.1819 H   0  0  0  0  0  0  0  0  0  0  0  0
   -3.7524   -1.3038   -1.2951 H   0  0  0  0  0  0  0  0  0  0  0  0
   -3.8348   -0.6842    2.2793 H   0  0  0  0  0  0  0  0  0  0  0  0
   -5.5839   -0.9840    2.3909 H   0  0  0  0  0  0  0  0  0  0  0  0
   -1.9519   -0.8361    0.2858 H   0  0  0  0  0  0  0  0  0  0  0  0
   -2.7439    5.5420   -0.9853 H   0  0  0  0  0  0  0  0  0  0  0  0
    0.4898    0.6979    2.5279 H   0  0  0  0  0  0  0  0  0  0  0  0
    1.0347   -0.0714   -1.6850 H   0  0  0  0  0  0  0  0  0  0  0  0
    1.5257    2.6504    0.0902 H   0  0  0  0  0  0  0  0  0  0  0  0
    1.5874    4.3385   -0.2106 H   0  0  0  0  0  0  0  0  0  0  0  0
    2.6753   -0.3341    2.9924 H   0  0  0  0  0  0  0  0  0  0  0  0
    3.1943   -1.1077   -1.2219 H   0  0  0  0  0  0  0  0  0  0  0  0
   -3.6063   -6.1217   -2.4265 H   0  0  0  0  0  0  0  0  0  0  0  0
   -5.2474   -5.6679   -2.9145 H   0  0  0  0  0  0  0  0  0  0  0  0
   -3.8663   -4.6881   -3.4336 H   0  0  0  0  0  0  0  0  0  0  0  0
    7.1605    1.7172   -0.5917 H   0  0  0  0  0  0  0  0  0  0  0  0
    7.6199   -2.3933   -1.7581 H   0  0  0  0  0  0  0  0  0  0  0  0
    8.3447   -0.0248   -1.9030 H   0  0  0  0  0  0  0  0  0  0  0  0
  1 32  1  0  0  0  0
  2 33  1  0  0  0  0
  3 19  2  0  0  0  0
  4 20  2  0  0  0  0
  5 28  1  0  0  0  0
  5 31  1  0  0  0  0
  6 11  1  0  0  0  0
  6 15  1  0  0  0  0
  6 16  1  0  0  0  0
  7 13  1  0  0  0  0
  7 14  1  0  0  0  0
  7 19  1  0  0  0  0
  8  9  1  0  0  0  0
  8 20  1  0  0  0  0
  8 45  1  0  0  0  0
  9 22  2  0  0  0  0
 10 22  1  0  0  0  0
 10 48  1  0  0  0  0
 10 49  1  0  0  0  0
 11 12  1  0  0  0  0
 11 13  1  0  0  0  0
 11 37  1  0  0  0  0
 12 14  1  0  0  0  0
 12 38  1  0  0  0  0
 12 39  1  0  0  0  0
 13 40  1  0  0  0  0
 13 41  1  0  0  0  0
 14 42  1  0  0  0  0
 14 43  1  0  0  0  0
 15 17  2  0  0  0  0
 15 20  1  0  0  0  0
 16 18  2  0  0  0  0
 16 44  1  0  0  0  0
 17 18  1  0  0  0  0
 17 22  1  0  0  0  0
 18 21  1  0  0  0  0
 19 25  1  0  0  0  0
 21 23  2  0  0  0  0
 21 24  1  0  0  0  0
 23 26  1  0  0  0  0
 23 46  1  0  0  0  0
 24 27  2  0  0  0  0
 24 47  1  0  0  0  0
 25 29  3  0  0  0  0
 26 28  2  0  0  0  0
 26 50  1  0  0  0  0
 27 28  1  0  0  0  0
 27 51  1  0  0  0  0
 29 30  1  0  0  0  0
 30 52  1  0  0  0  0
 30 53  1  0  0  0  0
 30 54  1  0  0  0  0
 31 32  2  0  0  0  0
 31 33  1  0  0  0  0
 32 34  1  0  0  0  0
 33 35  2  0  0  0  0
 34 36  2  0  0  0  0
 34 55  1  0  0  0  0
 35 36  1  0  0  0  0
 35 56  1  0  0  0  0
 36 57  1  0  0  0  0
M  END
> <PUBCHEM_COMPOUND_CID>
118649391

> <PUBCHEM_CONFORMER_RMSD>
1

> <PUBCHEM_CONFORMER_DIVERSEORDER>
1
53
71
9
57
23
35
56
69
66
59
47
68
40
58
28
25
48
64
44
34
65
46
55
54
12
60
41
33
39
63
29
61
11
45
38
14
32
10
70
26
15
67
62
51
36
17
22
30
37
49
6
7
43
8
3
52
21
50
18
13
20
31
27
2
24
5
16
19
4
42

> <PUBCHEM_MMFF94_PARTIAL_CHARGES>
46
1 -0.19
10 -0.85
11 0.26
13 0.3
14 0.3
15 -0.24
16 -0.3
17 -0.09
18 -0.05
19 0.74
2 -0.19
20 0.71
21 0.05
22 0.59
23 -0.15
24 -0.15
25 -0.1
26 -0.15
27 -0.15
28 0.08
29 -0.2
3 -0.57
30 0.2
31 0.08
32 0.19
33 0.19
34 -0.15
35 -0.15
36 -0.15
4 -0.57
44 0.15
45 0.37
46 0.15
47 0.15
48 0.4
49 0.4
5 -0.17
50 0.15
51 0.15
55 0.15
56 0.15
57 0.15
6 0.05
7 -0.66
8 -0.37
9 -0.51

> <PUBCHEM_EFFECTIVE_ROTOR_COUNT>
6

> <PUBCHEM_PHARMACOPHORE_FEATURES>
13
1 10 donor
1 3 acceptor
1 30 hydrophobe
1 4 acceptor
1 5 acceptor
1 6 cation
1 8 donor
3 9 10 22 cation
5 6 15 16 17 18 rings
5 7 11 12 13 14 rings
6 21 23 24 26 27 28 rings
6 31 32 33 34 35 36 rings
6 8 9 15 17 20 22 rings

> <PUBCHEM_HEAVY_ATOM_COUNT>
36

> <PUBCHEM_ATOM_DEF_STEREO_COUNT>
1

> <PUBCHEM_ATOM_UDEF_STEREO_COUNT>
0

> <PUBCHEM_BOND_DEF_STEREO_COUNT>
0

> <PUBCHEM_BOND_UDEF_STEREO_COUNT>
0

> <PUBCHEM_ISOTOPIC_ATOM_COUNT>
0

> <PUBCHEM_COMPONENT_COUNT>
1

> <PUBCHEM_CACTVS_TAUTO_COUNT>
5

> <PUBCHEM_CONFORMER_ID>
0712722F00000001

> <PUBCHEM_MMFF94_ENERGY>
98.803

> <PUBCHEM_FEATURE_SELFOVERLAP>
66.067

> <PUBCHEM_SHAPE_FINGERPRINT>
10290309 65 17831577574963322825
10462674 125 15546511310835165638
10462674 296 18125998519133297767
10940486 97 18411140260106307853
11056379 131 18335983047709477033
11069576 57 17404284696441652055
11227688 84 18192989551000366301
11315621 246 18409730634263810894
12539765 74 17688579473748616813
13690498 29 18260546740887040767
13782708 43 18060697308367999622
14114206 34 17604413190023598539
14117953 113 18341322371681596823
14415361 349 18272080626447740639
14856354 85 18409172108069175927
15361156 5 18334303096921360082
15705408 1 17971465454051757357
15876981 60 18259992565124901797
16989713 51 18341894116852373014
18608769 82 18411699894619055872
19304671 126 12397668119674127835
20505436 4 17388825171511788857
21796203 349 17901423217914906491
23559900 14 18408595976950969193
255183 451 18193837278865674319
335507 130 18260841401445147958
437795 160 18334848400273077618
4573279 73 18117570728346174772
6673363 416 18337125557389614252
6700243 42 17985580851300879388
6898599 12 18042401318358911116

> <PUBCHEM_SHAPE_MULTIPOLES>
683.8
17.86
6.35
1.57
27.42
0.33
-0.17
15.56
2.49
-11.9
3.89
-0.99
1.38
-0.1

> <PUBCHEM_SHAPE_SELFOVERLAP>
1513.749

> <PUBCHEM_SHAPE_VOLUME>
368.3

> <PUBCHEM_COORDINATE_TYPE>
2
5
10

$$$$
118912975
  -OEChem-11282412143D

 66 69  0     0  0  0  0  0  0999 V2000
   -4.1841    0.2464    0.8931 O   0  0  0  0  0  0  0  0  0  0  0  0
   -2.0456    4.2917   -0.3994 O   0  0  0  0  0  0  0  0  0  0  0  0
    0.5832   -1.1115    2.0880 O   0  0  0  0  0  0  0  0  0  0  0  0
    4.8300   -1.9971   -0.2676 N   0  0  0  0  0  0  0  0  0  0  0  0
    2.0622    1.5853   -0.0104 N   0  0  0  0  0  0  0  0  0  0  0  0
    0.4581    3.2586    0.3535 N   0  0  0  0  0  0  0  0  0  0  0  0
   -6.4105   -1.6508   -1.3453 N   0  0  0  0  0  0  0  0  0  0  0  0
    2.6910    3.9110    0.0457 N   0  0  0  0  0  0  0  0  0  0  0  0
   -1.7168   -0.8489    1.6654 N   0  0  0  0  0  0  0  0  0  0  0  0
    2.8444   -1.1782   -0.8708 C   0  0  0  0  0  0  0  0  0  0  0  0
    3.6063   -2.3460   -0.7929 C   0  0  0  0  0  0  0  0  0  0  0  0
    3.6533   -0.1180   -0.3743 C   0  0  0  0  0  0  0  0  0  0  0  0
    4.8679   -0.6527   -0.0113 C   0  0  0  0  0  0  0  0  0  0  0  0
    3.3568    1.2790   -0.2349 C   0  0  0  0  0  0  0  0  0  0  0  0
    1.5332   -1.2567   -1.3806 C   0  0  0  0  0  0  0  0  0  0  0  0
    3.1205   -3.5933   -1.2011 C   0  0  0  0  0  0  0  0  0  0  0  0
    5.9273   -2.9064   -0.0164 C   0  0  0  0  0  0  0  0  0  0  0  0
    1.0339   -2.4976   -1.7926 C   0  0  0  0  0  0  0  0  0  0  0  0
    1.8171   -3.6467   -1.7034 C   0  0  0  0  0  0  0  0  0  0  0  0
   -0.7196    2.5001    0.4882 C   0  0  0  0  0  0  0  0  0  0  0  0
    4.3618    2.2198   -0.3306 C   0  0  0  0  0  0  0  0  0  0  0  0
   -3.0392    0.9749    0.7657 C   0  0  0  0  0  0  0  0  0  0  0  0
   -5.6285   -1.3516   -0.1549 C   0  0  0  0  0  0  0  0  0  0  0  0
   -1.8059    0.4444    1.1448 C   0  0  0  0  0  0  0  0  0  0  0  0
   -4.9220   -0.0132   -0.2992 C   0  0  0  0  0  0  0  0  0  0  0  0
    1.8035    2.9007    0.1180 C   0  0  0  0  0  0  0  0  0  0  0  0
   -1.9528    3.0307    0.1090 C   0  0  0  0  0  0  0  0  0  0  0  0
   -0.6463    1.2071    1.0063 C   0  0  0  0  0  0  0  0  0  0  0  0
   -3.1125    2.2681    0.2479 C   0  0  0  0  0  0  0  0  0  0  0  0
    3.9664    3.5334   -0.1806 C   0  0  0  0  0  0  0  0  0  0  0  0
   -7.4647   -2.6218   -1.0422 C   0  0  0  0  0  0  0  0  0  0  0  0
   -5.5498   -2.1575   -2.4170 C   0  0  0  0  0  0  0  0  0  0  0  0
   -0.5689   -1.5287    2.0921 C   0  0  0  0  0  0  0  0  0  0  0  0
   -1.9274    4.4296   -1.8139 C   0  0  0  0  0  0  0  0  0  0  0  0
   -0.8938   -2.8986    2.5853 C   0  0  0  0  0  0  0  0  0  0  0  0
    0.0716   -3.7056    3.0366 C   0  0  0  0  0  0  0  0  0  0  0  0
    5.7553   -0.2026    0.4155 H   0  0  0  0  0  0  0  0  0  0  0  0
    0.9044   -0.3756   -1.4659 H   0  0  0  0  0  0  0  0  0  0  0  0
    3.7249   -4.4917   -1.1340 H   0  0  0  0  0  0  0  0  0  0  0  0
    5.5913   -3.6631    0.6971 H   0  0  0  0  0  0  0  0  0  0  0  0
    6.2167   -3.3677   -0.9641 H   0  0  0  0  0  0  0  0  0  0  0  0
    6.7742   -2.3553    0.4003 H   0  0  0  0  0  0  0  0  0  0  0  0
    0.0232   -2.5639   -2.1866 H   0  0  0  0  0  0  0  0  0  0  0  0
    1.4091   -4.6003   -2.0289 H   0  0  0  0  0  0  0  0  0  0  0  0
    5.4003    1.9829   -0.5246 H   0  0  0  0  0  0  0  0  0  0  0  0
   -4.9121   -2.1477    0.0886 H   0  0  0  0  0  0  0  0  0  0  0  0
   -6.2811   -1.2724    0.7257 H   0  0  0  0  0  0  0  0  0  0  0  0
   -5.6537    0.7918   -0.4381 H   0  0  0  0  0  0  0  0  0  0  0  0
   -4.2453   -0.0189   -1.1618 H   0  0  0  0  0  0  0  0  0  0  0  0
    0.3099    0.8575    1.3547 H   0  0  0  0  0  0  0  0  0  0  0  0
    0.3068    4.2616    0.3021 H   0  0  0  0  0  0  0  0  0  0  0  0
   -4.0708    2.6922   -0.0413 H   0  0  0  0  0  0  0  0  0  0  0  0
    4.6851    4.3435   -0.2436 H   0  0  0  0  0  0  0  0  0  0  0  0
   -2.6061   -1.3398    1.7340 H   0  0  0  0  0  0  0  0  0  0  0  0
   -7.0576   -3.5709   -0.6748 H   0  0  0  0  0  0  0  0  0  0  0  0
   -8.1511   -2.2232   -0.2868 H   0  0  0  0  0  0  0  0  0  0  0  0
   -8.0682   -2.8262   -1.9337 H   0  0  0  0  0  0  0  0  0  0  0  0
   -5.0208   -3.0725   -2.1262 H   0  0  0  0  0  0  0  0  0  0  0  0
   -6.1466   -2.3809   -3.3090 H   0  0  0  0  0  0  0  0  0  0  0  0
   -4.8101   -1.4144   -2.7298 H   0  0  0  0  0  0  0  0  0  0  0  0
   -2.0014    5.4920   -2.0617 H   0  0  0  0  0  0  0  0  0  0  0  0
   -2.7381    3.8952   -2.3193 H   0  0  0  0  0  0  0  0  0  0  0  0
   -0.9587    4.0565   -2.1610 H   0  0  0  0  0  0  0  0  0  0  0  0
   -1.9249   -3.2347    2.5742 H   0  0  0  0  0  0  0  0  0  0  0  0
   -0.1758   -4.7001    3.3929 H   0  0  0  0  0  0  0  0  0  0  0  0
    1.1147   -3.4108    3.0644 H   0  0  0  0  0  0  0  0  0  0  0  0
  1 22  1  0  0  0  0
  1 25  1  0  0  0  0
  2 27  1  0  0  0  0
  2 34  1  0  0  0  0
  3 33  2  0  0  0  0
  4 11  1  0  0  0  0
  4 13  1  0  0  0  0
  4 17  1  0  0  0  0
  5 14  2  0  0  0  0
  5 26  1  0  0  0  0
  6 20  1  0  0  0  0
  6 26  1  0  0  0  0
  6 51  1  0  0  0  0
  7 23  1  0  0  0  0
  7 31  1  0  0  0  0
  7 32  1  0  0  0  0
  8 26  2  0  0  0  0
  8 30  1  0  0  0  0
  9 24  1  0  0  0  0
  9 33  1  0  0  0  0
  9 54  1  0  0  0  0
 10 11  1  0  0  0  0
 10 12  1  0  0  0  0
 10 15  2  0  0  0  0
 11 16  2  0  0  0  0
 12 13  2  0  0  0  0
 12 14  1  0  0  0  0
 13 37  1  0  0  0  0
 14 21  1  0  0  0  0
 15 18  1  0  0  0  0
 15 38  1  0  0  0  0
 16 19  1  0  0  0  0
 16 39  1  0  0  0  0
 17 40  1  0  0  0  0
 17 41  1  0  0  0  0
 17 42  1  0  0  0  0
 18 19  2  0  0  0  0
 18 43  1  0  0  0  0
 19 44  1  0  0  0  0
 20 27  1  0  0  0  0
 20 28  2  0  0  0  0
 21 30  2  0  0  0  0
 21 45  1  0  0  0  0
 22 24  2  0  0  0  0
 22 29  1  0  0  0  0
 23 25  1  0  0  0  0
 23 46  1  0  0  0  0
 23 47  1  0  0  0  0
 24 28  1  0  0  0  0
 25 48  1  0  0  0  0
 25 49  1  0  0  0  0
 27 29  2  0  0  0  0
 28 50  1  0  0  0  0
 29 52  1  0  0  0  0
 30 53  1  0  0  0  0
 31 55  1  0  0  0  0
 31 56  1  0  0  0  0
 31 57  1  0  0  0  0
 32 58  1  0  0  0  0
 32 59  1  0  0  0  0
 32 60  1  0  0  0  0
 33 35  1  0  0  0  0
 34 61  1  0  0  0  0
 34 62  1  0  0  0  0
 34 63  1  0  0  0  0
 35 36  2  0  0  0  0
 35 64  1  0  0  0  0
 36 65  1  0  0  0  0
 36 66  1  0  0  0  0
M  END
> <PUBCHEM_COMPOUND_CID>
118912975

> <PUBCHEM_CONFORMER_RMSD>
1.2

> <PUBCHEM_CONFORMER_DIVERSEORDER>
1
46
28
4
45
23
61
24
20
60
9
57
35
51
22
37
3
10
41
25
27
59
49
52
40
38
8
13
53
32
55
34
44
39
58
47
42
18
12
14
31
54
48
15
19
50
43
26
16
11
2
36
56
33
30
21
17
5
29
6
7

> <PUBCHEM_MMFF94_PARTIAL_CHARGES>
49
1 -0.36
11 -0.15
12 -0.05
13 -0.3
14 0.36
15 -0.15
16 -0.15
17 0.26
18 -0.15
19 -0.15
2 -0.36
20 0.1
21 -0.15
22 0.08
23 0.27
24 0.12
25 0.28
26 0.72
27 0.08
28 -0.15
29 -0.15
3 -0.57
30 0.16
31 0.27
32 0.27
33 0.62
34 0.28
35 -0.14
36 -0.3
37 0.15
38 0.15
39 0.15
4 0.05
43 0.15
44 0.15
45 0.15
5 -0.62
50 0.15
51 0.4
52 0.15
53 0.15
54 0.37
6 -0.6
64 0.15
65 0.15
66 0.15
7 -0.81
8 -0.62
9 -0.55

> <PUBCHEM_EFFECTIVE_ROTOR_COUNT>
11

> <PUBCHEM_PHARMACOPHORE_FEATURES>
14
1 1 acceptor
1 2 acceptor
1 3 acceptor
1 36 hydrophobe
1 4 cation
1 5 acceptor
1 6 donor
1 7 cation
1 9 donor
4 5 6 8 26 cation
5 4 10 11 12 13 rings
6 10 11 15 16 18 19 rings
6 20 22 24 27 28 29 rings
6 5 8 14 21 26 30 rings

> <PUBCHEM_HEAVY_ATOM_COUNT>
36

> <PUBCHEM_ATOM_DEF_STEREO_COUNT>
0

> <PUBCHEM_ATOM_UDEF_STEREO_COUNT>
0

> <PUBCHEM_BOND_DEF_STEREO_COUNT>
0

> <PUBCHEM_BOND_UDEF_STEREO_COUNT>
0

> <PUBCHEM_ISOTOPIC_ATOM_COUNT>
0

> <PUBCHEM_COMPONENT_COUNT>
1

> <PUBCHEM_CACTVS_TAUTO_COUNT>
21

> <PUBCHEM_CONFORMER_ID>
071677CF00000001

> <PUBCHEM_MMFF94_ENERGY>
124.0711

> <PUBCHEM_FEATURE_SELFOVERLAP>
71.138

> <PUBCHEM_SHAPE_FINGERPRINT>
10693767 8 18269262629864406751
11828532 37 17896341240832972355
12107698 1 18410855417447780582
12156800 1 16979494644821817814
12202916 173 18263634220808379482
12645989 146 18198352758299207206
1361 2 18198622335851848085
13642711 20 18041820914169458399
140371 6 18045800132581861913
14040221 299 13506690084648392890
14725015 67 18261681371966544016
15324884 4 17690020237433277848
15361156 5 18263101945227263781
15484559 13 17901920236041442675
19311894 1 17907019473816620227
19315092 285 17704074031581305833
20775438 99 18051675926762268107
21344244 246 18267864076743433271
23559900 14 18267584611738155368
24771750 20 17177164072755369213
354706 35 18189349029097498566
44344687 77 18337682988188662659
45266715 3 18114172081716924194
6669772 16 18116705403778262659
9709674 26 18336278872457020312

> <PUBCHEM_SHAPE_MULTIPOLES>
693.37
12.73
6.5
2.15
14.28
3.56
-0.95
-9.28
6.33
-1.99
1.11
1.58
-2.68
-0.17

> <PUBCHEM_SHAPE_SELFOVERLAP>
1494.475

> <PUBCHEM_SHAPE_VOLUME>
381.2

> <PUBCHEM_COORDINATE_TYPE>
2
5
10

$$$$
118639856
  -OEChem-11282412143D

 77 81  0     0  0  0  0  0  0999 V2000
   -7.1841   -0.6426    0.1386 Cl  0  0  0  0  0  0  0  0  0  0  0  0
   -4.5105    3.6136    0.9106 P   0  0  0  0  0  0  0  0  0  0  0  0
    0.1519   -4.7511   -0.3607 O   0  0  0  0  0  0  0  0  0  0  0  0
   -5.3292    2.6118    1.6792 O   0  0  0  0  0  0  0  0  0  0  0  0
    3.2572   -1.1361    0.2021 N   0  0  0  0  0  0  0  0  0  0  0  0
    7.8993    2.2524    0.0379 N   0  0  0  0  0  0  0  0  0  0  0  0
   -1.9600   -3.1430    0.5731 N   0  0  0  0  0  0  0  0  0  0  0  0
   -3.2216   -1.2008    0.2238 N   0  0  0  0  0  0  0  0  0  0  0  0
   -4.2955   -3.3219    0.6175 N   0  0  0  0  0  0  0  0  0  0  0  0
   -4.5094    0.7514   -0.1248 N   0  0  0  0  0  0  0  0  0  0  0  0
    5.9497    0.0099   -0.0956 C   0  0  0  0  0  0  0  0  0  0  0  0
    5.2162   -0.0798    1.2649 C   0  0  0  0  0  0  0  0  0  0  0  0
    5.4168   -1.1390   -0.9832 C   0  0  0  0  0  0  0  0  0  0  0  0
    5.7356    1.3781   -0.7881 C   0  0  0  0  0  0  0  0  0  0  0  0
    7.4728   -0.1818    0.1047 C   0  0  0  0  0  0  0  0  0  0  0  0
    3.6910   -0.0947    1.1372 C   0  0  0  0  0  0  0  0  0  0  0  0
    3.8943   -1.1413   -1.1200 C   0  0  0  0  0  0  0  0  0  0  0  0
    6.4633    2.5280   -0.0839 C   0  0  0  0  0  0  0  0  0  0  0  0
    8.1445    1.0141    0.7853 C   0  0  0  0  0  0  0  0  0  0  0  0
    1.9541   -1.6413    0.2935 C   0  0  0  0  0  0  0  0  0  0  0  0
    8.5867    3.3781    0.6697 C   0  0  0  0  0  0  0  0  0  0  0  0
    1.6886   -2.9584   -0.0811 C   0  0  0  0  0  0  0  0  0  0  0  0
    0.9217   -0.8270    0.7592 C   0  0  0  0  0  0  0  0  0  0  0  0
    0.3908   -3.4615    0.0101 C   0  0  0  0  0  0  0  0  0  0  0  0
   -0.3762   -1.3300    0.8502 C   0  0  0  0  0  0  0  0  0  0  0  0
   -0.6416   -2.6472    0.4757 C   0  0  0  0  0  0  0  0  0  0  0  0
   -0.1941   -4.9787   -1.7253 C   0  0  0  0  0  0  0  0  0  0  0  0
   -3.2201   -2.5255    0.4662 C   0  0  0  0  0  0  0  0  0  0  0  0
   -4.4456   -0.6410    0.1277 C   0  0  0  0  0  0  0  0  0  0  0  0
   -3.5661    2.9697   -0.4413 C   0  0  0  0  0  0  0  0  0  0  0  0
   -3.6588    1.6293   -0.8159 C   0  0  0  0  0  0  0  0  0  0  0  0
   -5.4864   -2.6970    0.5093 C   0  0  0  0  0  0  0  0  0  0  0  0
   -5.6240   -1.3461    0.2628 C   0  0  0  0  0  0  0  0  0  0  0  0
   -3.4029    4.4791    2.0296 C   0  0  0  0  0  0  0  0  0  0  0  0
   -5.5742    4.9263    0.2998 C   0  0  0  0  0  0  0  0  0  0  0  0
   -2.7173    3.8310   -1.1365 C   0  0  0  0  0  0  0  0  0  0  0  0
   -2.9025    1.1501   -1.8855 C   0  0  0  0  0  0  0  0  0  0  0  0
   -1.9611    3.3519   -2.2061 C   0  0  0  0  0  0  0  0  0  0  0  0
   -2.0536    2.0113   -2.5806 C   0  0  0  0  0  0  0  0  0  0  0  0
    5.5233   -1.0049    1.7726 H   0  0  0  0  0  0  0  0  0  0  0  0
    5.5033    0.7400    1.9316 H   0  0  0  0  0  0  0  0  0  0  0  0
    5.8661   -1.0898   -1.9830 H   0  0  0  0  0  0  0  0  0  0  0  0
    5.7269   -2.1009   -0.5519 H   0  0  0  0  0  0  0  0  0  0  0  0
    4.6722    1.6291   -0.8620 H   0  0  0  0  0  0  0  0  0  0  0  0
    6.1033    1.3199   -1.8222 H   0  0  0  0  0  0  0  0  0  0  0  0
    7.9519   -0.3406   -0.8715 H   0  0  0  0  0  0  0  0  0  0  0  0
    7.6700   -1.0872    0.6925 H   0  0  0  0  0  0  0  0  0  0  0  0
    3.3283    0.8862    0.8090 H   0  0  0  0  0  0  0  0  0  0  0  0
    3.2799   -0.2804    2.1379 H   0  0  0  0  0  0  0  0  0  0  0  0
    3.6138   -2.0257   -1.7039 H   0  0  0  0  0  0  0  0  0  0  0  0
    3.5552   -0.2695   -1.6921 H   0  0  0  0  0  0  0  0  0  0  0  0
    6.3152    3.4351   -0.6830 H   0  0  0  0  0  0  0  0  0  0  0  0
    6.0113    2.7186    0.8973 H   0  0  0  0  0  0  0  0  0  0  0  0
    7.8006    1.1027    1.8233 H   0  0  0  0  0  0  0  0  0  0  0  0
    9.2231    0.8166    0.8235 H   0  0  0  0  0  0  0  0  0  0  0  0
    9.6662    3.1952    0.7125 H   0  0  0  0  0  0  0  0  0  0  0  0
    8.2275    3.5638    1.6884 H   0  0  0  0  0  0  0  0  0  0  0  0
    8.4474    4.2928    0.0827 H   0  0  0  0  0  0  0  0  0  0  0  0
    2.4873   -3.6088   -0.4302 H   0  0  0  0  0  0  0  0  0  0  0  0
    1.0901    0.2049    1.0539 H   0  0  0  0  0  0  0  0  0  0  0  0
   -1.1367   -0.6730    1.2584 H   0  0  0  0  0  0  0  0  0  0  0  0
   -2.0212   -4.1559    0.6168 H   0  0  0  0  0  0  0  0  0  0  0  0
   -1.1066   -4.4356   -1.9905 H   0  0  0  0  0  0  0  0  0  0  0  0
    0.6269   -4.6766   -2.3834 H   0  0  0  0  0  0  0  0  0  0  0  0
   -0.3734   -6.0489   -1.8592 H   0  0  0  0  0  0  0  0  0  0  0  0
   -5.2776    1.2013    0.3621 H   0  0  0  0  0  0  0  0  0  0  0  0
   -6.3487   -3.3452    0.6319 H   0  0  0  0  0  0  0  0  0  0  0  0
   -3.9677    4.8922    2.8704 H   0  0  0  0  0  0  0  0  0  0  0  0
   -2.6510    3.7902    2.4246 H   0  0  0  0  0  0  0  0  0  0  0  0
   -2.8909    5.3041    1.5274 H   0  0  0  0  0  0  0  0  0  0  0  0
   -6.1435    5.3647    1.1243 H   0  0  0  0  0  0  0  0  0  0  0  0
   -4.9896    5.7205   -0.1725 H   0  0  0  0  0  0  0  0  0  0  0  0
   -6.2798    4.5290   -0.4352 H   0  0  0  0  0  0  0  0  0  0  0  0
   -2.6384    4.8777   -0.8591 H   0  0  0  0  0  0  0  0  0  0  0  0
   -2.9658    0.1137   -2.2064 H   0  0  0  0  0  0  0  0  0  0  0  0
   -1.3013    4.0227   -2.7485 H   0  0  0  0  0  0  0  0  0  0  0  0
   -1.4668    1.6392   -3.4154 H   0  0  0  0  0  0  0  0  0  0  0  0
  1 33  1  0  0  0  0
  2  4  2  0  0  0  0
  2 30  1  0  0  0  0
  2 34  1  0  0  0  0
  2 35  1  0  0  0  0
  3 24  1  0  0  0  0
  3 27  1  0  0  0  0
  5 16  1  0  0  0  0
  5 17  1  0  0  0  0
  5 20  1  0  0  0  0
  6 18  1  0  0  0  0
  6 19  1  0  0  0  0
  6 21  1  0  0  0  0
  7 26  1  0  0  0  0
  7 28  1  0  0  0  0
  7 62  1  0  0  0  0
  8 28  1  0  0  0  0
  8 29  2  0  0  0  0
  9 28  2  0  0  0  0
  9 32  1  0  0  0  0
 10 29  1  0  0  0  0
 10 31  1  0  0  0  0
 10 66  1  0  0  0  0
 11 12  1  0  0  0  0
 11 13  1  0  0  0  0
 11 14  1  0  0  0  0
 11 15  1  0  0  0  0
 12 16  1  0  0  0  0
 12 40  1  0  0  0  0
 12 41  1  0  0  0  0
 13 17  1  0  0  0  0
 13 42  1  0  0  0  0
 13 43  1  0  0  0  0
 14 18  1  0  0  0  0
 14 44  1  0  0  0  0
 14 45  1  0  0  0  0
 15 19  1  0  0  0  0
 15 46  1  0  0  0  0
 15 47  1  0  0  0  0
 16 48  1  0  0  0  0
 16 49  1  0  0  0  0
 17 50  1  0  0  0  0
 17 51  1  0  0  0  0
 18 52  1  0  0  0  0
 18 53  1  0  0  0  0
 19 54  1  0  0  0  0
 19 55  1  0  0  0  0
 20 22  2  0  0  0  0
 20 23  1  0  0  0  0
 21 56  1  0  0  0  0
 21 57  1  0  0  0  0
 21 58  1  0  0  0  0
 22 24  1  0  0  0  0
 22 59  1  0  0  0  0
 23 25  2  0  0  0  0
 23 60  1  0  0  0  0
 24 26  2  0  0  0  0
 25 26  1  0  0  0  0
 25 61  1  0  0  0  0
 27 63  1  0  0  0  0
 27 64  1  0  0  0  0
 27 65  1  0  0  0  0
 29 33  1  0  0  0  0
 30 31  1  0  0  0  0
 30 36  2  0  0  0  0
 31 37  2  0  0  0  0
 32 33  2  0  0  0  0
 32 67  1  0  0  0  0
 34 68  1  0  0  0  0
 34 69  1  0  0  0  0
 34 70  1  0  0  0  0
 35 71  1  0  0  0  0
 35 72  1  0  0  0  0
 35 73  1  0  0  0  0
 36 38  1  0  0  0  0
 36 74  1  0  0  0  0
 37 39  1  0  0  0  0
 37 75  1  0  0  0  0
 38 39  2  0  0  0  0
 38 76  1  0  0  0  0
 39 77  1  0  0  0  0
M  END
> <PUBCHEM_COMPOUND_CID>
118639856

> <PUBCHEM_CONFORMER_RMSD>
1.2

> <PUBCHEM_CONFORMER_DIVERSEORDER>
1
93
121
173
176
98
115
159
155
113
30
97
100
122
91
65
24
79
85
127
146
96
110
13
151
81
166
140
133
137
61
5
64
174
167
177
94
147
70
132
63
153
73
108
74
52
131
171
82
58
21
156
51
90
62
144
10
16
170
95
162
117
86
72
77
89
66
92
78
138
104
101
157
111
164
17
168
84
80
12
116
112
120
123
130
25
26
109
53
59
36
106
56
57
99
118
163
40
43
126
143
148
47
136
145
31
103
87
152
142
8
129
107
27
141
88
119
23
128
150
71
32
55
22
20
149
165
83
41
68
169
135
125
28
134
46
35
15
139
158
6
114
39
45
175
76
161
105
19
160
49
60
154
172
124
50
102
34
33
75
69
29
67
11
7
18
9
42
38
48
37
54
44
3
2
4
14

> <PUBCHEM_MMFF94_PARTIAL_CHARGES>
42
1 -0.18
10 -0.6
16 0.37
17 0.37
18 0.27
19 0.27
2 0.84
20 0.1
21 0.27
22 -0.15
23 -0.15
24 0.08
25 -0.15
26 0.1
27 0.28
28 0.72
29 0.41
3 -0.36
30 -0.14
31 0.1
32 0.16
33 0.18
36 -0.15
37 -0.15
38 -0.15
39 -0.15
4 -0.7
5 -0.84
59 0.15
6 -0.81
60 0.15
61 0.15
62 0.4
66 0.4
67 0.15
7 -0.6
74 0.15
75 0.15
76 0.15
77 0.15
8 -0.62
9 -0.62

> <PUBCHEM_EFFECTIVE_ROTOR_COUNT>
9

> <PUBCHEM_PHARMACOPHORE_FEATURES>
12
1 10 donor
1 3 acceptor
1 4 acceptor
1 5 cation
1 6 cation
1 7 donor
4 7 8 9 28 cation
6 20 22 23 24 25 26 rings
6 30 31 36 37 38 39 rings
6 5 11 12 13 16 17 rings
6 6 11 14 15 18 19 rings
6 8 9 28 29 32 33 rings

> <PUBCHEM_HEAVY_ATOM_COUNT>
39

> <PUBCHEM_ATOM_DEF_STEREO_COUNT>
0

> <PUBCHEM_ATOM_UDEF_STEREO_COUNT>
0

> <PUBCHEM_BOND_DEF_STEREO_COUNT>
0

> <PUBCHEM_BOND_UDEF_STEREO_COUNT>
0

> <PUBCHEM_ISOTOPIC_ATOM_COUNT>
0

> <PUBCHEM_COMPONENT_COUNT>
1

> <PUBCHEM_CACTVS_TAUTO_COUNT>
23

> <PUBCHEM_CONFORMER_ID>
07124CF000000001

> <PUBCHEM_MMFF94_ENERGY>
145.0329

> <PUBCHEM_FEATURE_SELFOVERLAP>
60.899

> <PUBCHEM_SHAPE_FINGERPRINT>
100830 39 18333445457051617172
10369192 42 18272653449960905591
10625338 131 18410566285383314256
10816530 145 17241041140746250511
11408170 253 18268160927682581968
11621639 148 18263650739743813987
12655364 74 17838335538822069700
13347071 3 18195532712942666052
13726171 33 18410012096081768393
14068700 686 18339367362318438039
14294032 229 18260833661777028188
14395042 24 18114762490556461041
15289351 153 18409440389882033018
15419008 145 18041546015368127976
15604295 49 18195805405291836608
15781502 593 18409720747254942256
15961568 22 18260830401939399455
15968369 153 18194128636113240478
16728433 281 18337971034438838988
18393751 57 18114752521494476275
18608769 82 18337669827601083202
19053607 189 18268697325530286825
19309040 13 17915173504099576549
19611394 137 17462016654597254083
20691028 202 18195246603110895065
21859007 373 18409168793145824790
23191077 185 18411127053066594122
24771293 8 18410859850903952595
25019877 29 18129955592798928975
3418910 222 17825403013781991252
3525247 154 18060697286767012128
3918712 181 18335130973521842013
4616759 239 17241321529180034826
50150288 127 16700340685633893777
50677037 204 18187652383708341541
58902169 19 13901632987135415690

> <PUBCHEM_SHAPE_MULTIPOLES>
766.7
21.55
7.12
1.6
37.66
0.8
-0.65
17.93
4.49
-8.35
-0.18
-1.11
1.22
0.83

> <PUBCHEM_SHAPE_SELFOVERLAP>
1609.04

> <PUBCHEM_SHAPE_VOLUME>
436.6

> <PUBCHEM_COORDINATE_TYPE>
2
5
10

$$$$
16129168
  -OEChem-11282412143D

 57 60  0     0  0  0  0  0  0999 V2000
   -1.6612    3.7977   -1.5066 O   0  0  0  0  0  0  0  0  0  0  0  0
    3.3057    1.1134    0.8834 O   0  0  0  0  0  0  0  0  0  0  0  0
    5.2170   -0.7351    0.0763 O   0  0  0  0  0  0  0  0  0  0  0  0
    0.6442    3.1719    0.0411 N   0  0  0  0  0  0  0  0  0  0  0  0
   -1.1413   -1.2945    0.4301 N   0  0  0  0  0  0  0  0  0  0  0  0
    1.8041   -3.9524   -0.7489 N   0  0  0  0  0  0  0  0  0  0  0  0
   -0.5140   -3.4190   -0.3632 N   0  0  0  0  0  0  0  0  0  0  0  0
    1.6248    3.4684    1.0833 C   0  0  0  0  0  0  0  0  0  0  0  0
   -0.7089    3.0844    0.6075 C   0  0  0  0  0  0  0  0  0  0  0  0
    0.6823    4.1916   -1.0166 C   0  0  0  0  0  0  0  0  0  0  0  0
    3.0346    3.4623    0.5009 C   0  0  0  0  0  0  0  0  0  0  0  0
   -1.7154    2.7862   -0.5001 C   0  0  0  0  0  0  0  0  0  0  0  0
   -0.3575    3.8682   -2.0857 C   0  0  0  0  0  0  0  0  0  0  0  0
    3.3760    2.1153   -0.1218 C   0  0  0  0  0  0  0  0  0  0  0  0
    2.9363   -0.1432    0.4794 C   0  0  0  0  0  0  0  0  0  0  0  0
    1.2069   -1.7752    0.0606 C   0  0  0  0  0  0  0  0  0  0  0  0
    1.5931   -0.4885    0.4750 C   0  0  0  0  0  0  0  0  0  0  0  0
    3.8939   -1.0604    0.0776 C   0  0  0  0  0  0  0  0  0  0  0  0
    2.1622   -2.7192   -0.3504 C   0  0  0  0  0  0  0  0  0  0  0  0
    3.5018   -2.3380   -0.3333 C   0  0  0  0  0  0  0  0  0  0  0  0
   -0.1207   -2.1927    0.0297 C   0  0  0  0  0  0  0  0  0  0  0  0
   -2.4839   -1.1540    0.0451 C   0  0  0  0  0  0  0  0  0  0  0  0
    0.4857   -4.2355   -0.7332 C   0  0  0  0  0  0  0  0  0  0  0  0
   -3.4292   -0.6644    0.9516 C   0  0  0  0  0  0  0  0  0  0  0  0
   -2.8852   -1.5025   -1.2481 C   0  0  0  0  0  0  0  0  0  0  0  0
    5.9496   -0.9964    1.2717 C   0  0  0  0  0  0  0  0  0  0  0  0
   -4.7632   -0.5249    0.5684 C   0  0  0  0  0  0  0  0  0  0  0  0
   -4.2192   -1.3629   -1.6311 C   0  0  0  0  0  0  0  0  0  0  0  0
   -5.1582   -0.8741   -0.7229 C   0  0  0  0  0  0  0  0  0  0  0  0
   -5.7254   -0.0240    1.4987 C   0  0  0  0  0  0  0  0  0  0  0  0
   -6.5350    0.3976    2.2816 C   0  0  0  0  0  0  0  0  0  0  0  0
    1.4296    4.4445    1.5463 H   0  0  0  0  0  0  0  0  0  0  0  0
    1.5580    2.7225    1.8849 H   0  0  0  0  0  0  0  0  0  0  0  0
   -0.7584    2.2849    1.3556 H   0  0  0  0  0  0  0  0  0  0  0  0
   -0.9772    4.0282    1.0997 H   0  0  0  0  0  0  0  0  0  0  0  0
    0.4792    5.1859   -0.5979 H   0  0  0  0  0  0  0  0  0  0  0  0
    1.6466    4.2246   -1.5302 H   0  0  0  0  0  0  0  0  0  0  0  0
    3.2105    4.2770   -0.2075 H   0  0  0  0  0  0  0  0  0  0  0  0
    3.7269    3.6417    1.3344 H   0  0  0  0  0  0  0  0  0  0  0  0
   -1.5335    1.8064   -0.9578 H   0  0  0  0  0  0  0  0  0  0  0  0
   -2.7304    2.7771   -0.0902 H   0  0  0  0  0  0  0  0  0  0  0  0
   -0.3731    4.6589   -2.8428 H   0  0  0  0  0  0  0  0  0  0  0  0
   -0.1327    2.9240   -2.5967 H   0  0  0  0  0  0  0  0  0  0  0  0
    2.7225    1.8865   -0.9724 H   0  0  0  0  0  0  0  0  0  0  0  0
    4.4049    2.1438   -0.4988 H   0  0  0  0  0  0  0  0  0  0  0  0
    0.8663    0.2524    0.7935 H   0  0  0  0  0  0  0  0  0  0  0  0
    4.2638   -3.0497   -0.6478 H   0  0  0  0  0  0  0  0  0  0  0  0
   -0.9163   -0.7987    1.2883 H   0  0  0  0  0  0  0  0  0  0  0  0
    0.2037   -5.2303   -1.0557 H   0  0  0  0  0  0  0  0  0  0  0  0
   -3.1199   -0.3917    1.9591 H   0  0  0  0  0  0  0  0  0  0  0  0
   -2.1710   -1.8722   -1.9793 H   0  0  0  0  0  0  0  0  0  0  0  0
    6.9841   -0.6787    1.1159 H   0  0  0  0  0  0  0  0  0  0  0  0
    5.5324   -0.4307    2.1107 H   0  0  0  0  0  0  0  0  0  0  0  0
    5.9425   -2.0670    1.4995 H   0  0  0  0  0  0  0  0  0  0  0  0
   -4.5260   -1.6316   -2.6377 H   0  0  0  0  0  0  0  0  0  0  0  0
   -6.1941   -0.7703   -1.0370 H   0  0  0  0  0  0  0  0  0  0  0  0
   -7.2520    0.7709    2.9749 H   0  0  0  0  0  0  0  0  0  0  0  0
  1 12  1  0  0  0  0
  1 13  1  0  0  0  0
  2 14  1  0  0  0  0
  2 15  1  0  0  0  0
  3 18  1  0  0  0  0
  3 26  1  0  0  0  0
  4  8  1  0  0  0  0
  4  9  1  0  0  0  0
  4 10  1  0  0  0  0
  5 21  1  0  0  0  0
  5 22  1  0  0  0  0
  5 48  1  0  0  0  0
  6 19  1  0  0  0  0
  6 23  2  0  0  0  0
  7 21  2  0  0  0  0
  7 23  1  0  0  0  0
  8 11  1  0  0  0  0
  8 32  1  0  0  0  0
  8 33  1  0  0  0  0
  9 12  1  0  0  0  0
  9 34  1  0  0  0  0
  9 35  1  0  0  0  0
 10 13  1  0  0  0  0
 10 36  1  0  0  0  0
 10 37  1  0  0  0  0
 11 14  1  0  0  0  0
 11 38  1  0  0  0  0
 11 39  1  0  0  0  0
 12 40  1  0  0  0  0
 12 41  1  0  0  0  0
 13 42  1  0  0  0  0
 13 43  1  0  0  0  0
 14 44  1  0  0  0  0
 14 45  1  0  0  0  0
 15 17  1  0  0  0  0
 15 18  2  0  0  0  0
 16 17  2  0  0  0  0
 16 19  1  0  0  0  0
 16 21  1  0  0  0  0
 17 46  1  0  0  0  0
 18 20  1  0  0  0  0
 19 20  2  0  0  0  0
 20 47  1  0  0  0  0
 22 24  1  0  0  0  0
 22 25  2  0  0  0  0
 23 49  1  0  0  0  0
 24 27  2  0  0  0  0
 24 50  1  0  0  0  0
 25 28  1  0  0  0  0
 25 51  1  0  0  0  0
 26 52  1  0  0  0  0
 26 53  1  0  0  0  0
 26 54  1  0  0  0  0
 27 29  1  0  0  0  0
 27 30  1  0  0  0  0
 28 29  2  0  0  0  0
 28 55  1  0  0  0  0
 29 56  1  0  0  0  0
 30 31  3  0  0  0  0
 31 57  1  0  0  0  0
M  END
> <PUBCHEM_COMPOUND_CID>
16129168

> <PUBCHEM_CONFORMER_RMSD>
1

> <PUBCHEM_CONFORMER_DIVERSEORDER>
1
310
211
246
387
329
139
412
229
241
126
334
294
273
288
101
49
360
235
280
321
87
389
70
65
209
276
283
399
392
190
314
80
171
297
306
319
10
311
267
309
230
331
353
420
405
40
27
359
24
237
395
13
364
191
151
332
250
272
281
373
177
418
64
406
140
345
401
117
262
218
422
170
284
413
270
166
382
88
76
3
92
182
423
93
274
106
158
275
233
363
96
244
324
255
174
54
216
176
184
390
248
236
313
8
376
403
163
336
2
417
374
355
119
263
60
194
303
37
380
304
116
144
39
48
410
45
256
291
407
186
391
322
99
90
115
358
419
195
138
147
185
371
154
29
160
349
77
307
132
81
308
89
318
7
149
384
232
178
340
338
58
17
32
187
265
129
370
53
335
105
135
421
305
293
72
295
379
35
416
425
212
120
205
136
366
215
118
56
323
62
169
199
361
114
42
203
301
100
220
14
316
264
240
134
330
346
159
378
200
41
327
5
398
402
339
207
4
84
300
415
44
350
83
342
394
317
164
18
320
155
52
131
113
315
333
348
188
204
328
125
175
85
109
26
362
397
69
287
79
269
221
414
104
224
249
365
383
343
21
86
257
290
326
381
223
409
192
28
251
197
161
206
25
127
67
189
352
386
31
34
277
201
102
347
298
150
167
393
285
208
162
78
372
377
15
33
219
22
103
210
217
271
325
183
94
30
98
95
222
231
388
404
247
253
43
73
172
214
11
337
19
312
68
227
266
228
66
357
20
47
202
351
46
354
6
152
112
385
12
59
57
278
258
289
108
193
9
111
180
124
396
38
356
50
302
23
408
260
296
344
75
367
411
268
282
254
71
369
424
261
130
142
279
196
181
368
97
133
173
165
198
252
400
153
213
238
259
91
179
341
239
51
157
242
226
141
63
122
16
225
292
145
82
74
243
375
168
128
107
121
55
36
234
61
137
110
143
123
286
156
299
245
146
148

> <PUBCHEM_MMFF94_PARTIAL_CHARGES>
38
1 -0.56
10 0.27
12 0.28
13 0.28
14 0.28
15 0.08
17 -0.15
18 0.08
19 0.31
2 -0.36
20 -0.15
21 0.41
22 0.1
23 0.47
24 -0.15
25 -0.15
26 0.28
27 0.07
28 -0.15
29 -0.15
3 -0.36
30 -0.07
31 -0.18
4 -0.81
46 0.15
47 0.15
48 0.4
49 0.15
5 -0.6
50 0.15
51 0.15
55 0.15
56 0.15
57 0.18
6 -0.62
7 -0.62
8 0.27
9 0.27

> <PUBCHEM_EFFECTIVE_ROTOR_COUNT>
9.2

> <PUBCHEM_PHARMACOPHORE_FEATURES>
12
1 1 acceptor
1 2 acceptor
1 3 acceptor
1 31 hydrophobe
1 4 cation
1 5 donor
3 5 7 21 cation
3 6 7 23 cation
6 1 4 9 10 12 13 rings
6 15 16 17 18 19 20 rings
6 22 24 25 27 28 29 rings
6 6 7 16 19 21 23 rings

> <PUBCHEM_HEAVY_ATOM_COUNT>
31

> <PUBCHEM_ATOM_DEF_STEREO_COUNT>
0

> <PUBCHEM_ATOM_UDEF_STEREO_COUNT>
0

> <PUBCHEM_BOND_DEF_STEREO_COUNT>
0

> <PUBCHEM_BOND_UDEF_STEREO_COUNT>
0

> <PUBCHEM_ISOTOPIC_ATOM_COUNT>
0

> <PUBCHEM_COMPONENT_COUNT>
1

> <PUBCHEM_CACTVS_TAUTO_COUNT>
3

> <PUBCHEM_CONFORMER_ID>
00F61C9000000001

> <PUBCHEM_MMFF94_ENERGY>
108.0605

> <PUBCHEM_FEATURE_SELFOVERLAP>
61.073

> <PUBCHEM_SHAPE_FINGERPRINT>
10074138 170 16244311460461121642
10439779 11 17838602715387765496
10670039 82 18264224525952289438
10688039 33 18187089403505376424
11059048 146 17617389814842976845
11513181 2 17916596456270109580
12156800 1 17268673864848284357
12422481 6 18339657633577919473
13122387 1 16898485711726081412
13140716 1 18264766743755947322
1361 2 18194954373899552335
13690498 29 17766297382956843022
14114211 80 18050585219664124012
14117953 113 18341326725691296614
14725015 67 18262220154149520640
14784336 7 17555724766709631245
15081414 286 18342464685966903047
15483637 11 18050288063920428137
20739085 24 18336275625429959433
20764821 26 18337933645761765500
20775438 99 17474618981743142877
20775530 9 18335697217731224472
21133410 38 18130224977874502349
21641784 216 18188507769838008028
21860390 5 18272375325396211846
22113638 7 18194394717879689212
24771293 8 18059564828861183042
25265897 201 17625853790717902894
469060 322 18264223429928364257
474 4 18342736360071084299
550186 83 17751055093963547976

> <PUBCHEM_SHAPE_MULTIPOLES>
600.43
11.21
6.34
1.51
8.93
3.98
0.03
-3.21
-5.57
-3.94
2.65
1.86
0.82
-0.09

> <PUBCHEM_SHAPE_SELFOVERLAP>
1288.686

> <PUBCHEM_SHAPE_VOLUME>
328.4

> <PUBCHEM_COORDINATE_TYPE>
2
5
10

$$$$
71535003
  -OEChem-11282412143D

 52 55  0     1  0  0  0  0  0999 V2000
    2.6163    4.1778   -0.1454 Cl  0  0  0  0  0  0  0  0  0  0  0  0
   -2.6828    3.7552   -0.3010 O   0  0  0  0  0  0  0  0  0  0  0  0
    0.6807    1.5117   -0.4690 O   0  0  0  0  0  0  0  0  0  0  0  0
   -5.1253   -0.7488   -0.7154 O   0  0  0  0  0  0  0  0  0  0  0  0
   -3.5891    0.8388   -0.0259 N   0  0  0  0  0  0  0  0  0  0  0  0
    1.7406   -0.5370   -0.1115 N   0  0  0  0  0  0  0  0  0  0  0  0
    5.2115    1.3983    0.6179 N   0  0  0  0  0  0  0  0  0  0  0  0
    4.0986   -0.7352    0.4617 N   0  0  0  0  0  0  0  0  0  0  0  0
    2.7402   -2.6251    0.2336 N   0  0  0  0  0  0  0  0  0  0  0  0
   -0.3255   -4.3135   -0.4118 N   0  0  0  0  0  0  0  0  0  0  0  0
    0.4242   -5.4043   -0.1783 N   0  0  0  0  0  0  0  0  0  0  0  0
   -1.6306    1.7194   -1.0361 C   0  0  2  0  0  0  0  0  0  0  0  0
   -2.0062    2.5904    0.1670 C   0  0  2  0  0  0  0  0  0  0  0  0
   -2.9334    0.9686   -1.3211 C   0  0  0  0  0  0  0  0  0  0  0  0
   -2.9780    1.7266    0.9659 C   0  0  0  0  0  0  0  0  0  0  0  0
   -0.4909    0.7555   -0.7101 C   0  0  0  0  0  0  0  0  0  0  0  0
   -4.6488   -0.0279    0.1609 C   0  0  0  0  0  0  0  0  0  0  0  0
   -1.7661    4.7851   -0.6385 C   0  0  0  0  0  0  0  0  0  0  0  0
    1.8224    0.8128   -0.1612 C   0  0  0  0  0  0  0  0  0  0  0  0
   -5.2311   -0.0790    1.5165 C   0  0  0  0  0  0  0  0  0  0  0  0
    3.0415    1.4374    0.0979 C   0  0  0  0  0  0  0  0  0  0  0  0
    4.1152    0.6075    0.3968 C   0  0  0  0  0  0  0  0  0  0  0  0
   -6.2568   -0.9013    1.7467 C   0  0  0  0  0  0  0  0  0  0  0  0
    3.5237    2.7704    0.1446 C   0  0  0  0  0  0  0  0  0  0  0  0
    2.8684   -1.2179    0.1927 C   0  0  0  0  0  0  0  0  0  0  0  0
    4.8631    2.7160    0.4673 C   0  0  0  0  0  0  0  0  0  0  0  0
    1.6503   -3.4871    0.0173 C   0  0  0  0  0  0  0  0  0  0  0  0
    0.3616   -3.1399   -0.3072 C   0  0  0  0  0  0  0  0  0  0  0  0
    1.6301   -4.8931    0.0833 C   0  0  0  0  0  0  0  0  0  0  0  0
   -1.7238   -4.4613   -0.7375 C   0  0  0  0  0  0  0  0  0  0  0  0
   -1.3466    2.3138   -1.9112 H   0  0  0  0  0  0  0  0  0  0  0  0
   -1.1580    2.8823    0.7970 H   0  0  0  0  0  0  0  0  0  0  0  0
   -3.5976    1.5608   -1.9613 H   0  0  0  0  0  0  0  0  0  0  0  0
   -2.7913   -0.0124   -1.7855 H   0  0  0  0  0  0  0  0  0  0  0  0
   -2.4575    1.0956    1.6939 H   0  0  0  0  0  0  0  0  0  0  0  0
   -3.7511    2.3155    1.4683 H   0  0  0  0  0  0  0  0  0  0  0  0
   -0.3307    0.0908   -1.5685 H   0  0  0  0  0  0  0  0  0  0  0  0
   -0.7364    0.1476    0.1694 H   0  0  0  0  0  0  0  0  0  0  0  0
   -2.3363    5.6363   -1.0208 H   0  0  0  0  0  0  0  0  0  0  0  0
   -1.0656    4.4657   -1.4149 H   0  0  0  0  0  0  0  0  0  0  0  0
   -1.2160    5.1138    0.2489 H   0  0  0  0  0  0  0  0  0  0  0  0
   -4.8349    0.5236    2.3228 H   0  0  0  0  0  0  0  0  0  0  0  0
   -6.6903   -0.9540    2.7405 H   0  0  0  0  0  0  0  0  0  0  0  0
   -6.6975   -1.5364    0.9865 H   0  0  0  0  0  0  0  0  0  0  0  0
    6.1344    1.0619    0.8554 H   0  0  0  0  0  0  0  0  0  0  0  0
    5.6010    3.4945    0.6033 H   0  0  0  0  0  0  0  0  0  0  0  0
    3.6318   -3.0575    0.4681 H   0  0  0  0  0  0  0  0  0  0  0  0
   -0.1316   -2.1944   -0.4726 H   0  0  0  0  0  0  0  0  0  0  0  0
    2.4423   -5.5690    0.3109 H   0  0  0  0  0  0  0  0  0  0  0  0
   -2.1714   -3.4750   -0.8838 H   0  0  0  0  0  0  0  0  0  0  0  0
   -2.2174   -4.9756    0.0909 H   0  0  0  0  0  0  0  0  0  0  0  0
   -1.8026   -5.0474   -1.6565 H   0  0  0  0  0  0  0  0  0  0  0  0
  1 24  1  0  0  0  0
  2 13  1  0  0  0  0
  2 18  1  0  0  0  0
  3 16  1  0  0  0  0
  3 19  1  0  0  0  0
  4 17  2  0  0  0  0
  5 14  1  0  0  0  0
  5 15  1  0  0  0  0
  5 17  1  0  0  0  0
  6 19  2  0  0  0  0
  6 25  1  0  0  0  0
  7 22  1  0  0  0  0
  7 26  1  0  0  0  0
  7 45  1  0  0  0  0
  8 22  1  0  0  0  0
  8 25  2  0  0  0  0
  9 25  1  0  0  0  0
  9 27  1  0  0  0  0
  9 47  1  0  0  0  0
 10 11  1  0  0  0  0
 10 28  1  0  0  0  0
 10 30  1  0  0  0  0
 11 29  2  0  0  0  0
 12 13  1  0  0  0  0
 12 14  1  0  0  0  0
 12 16  1  0  0  0  0
 12 31  1  0  0  0  0
 13 15  1  0  0  0  0
 13 32  1  0  0  0  0
 14 33  1  0  0  0  0
 14 34  1  0  0  0  0
 15 35  1  0  0  0  0
 15 36  1  0  0  0  0
 16 37  1  0  0  0  0
 16 38  1  0  0  0  0
 17 20  1  0  0  0  0
 18 39  1  0  0  0  0
 18 40  1  0  0  0  0
 18 41  1  0  0  0  0
 19 21  1  0  0  0  0
 20 23  2  0  0  0  0
 20 42  1  0  0  0  0
 21 22  2  0  0  0  0
 21 24  1  0  0  0  0
 23 43  1  0  0  0  0
 23 44  1  0  0  0  0
 24 26  2  0  0  0  0
 26 46  1  0  0  0  0
 27 28  2  0  0  0  0
 27 29  1  0  0  0  0
 28 48  1  0  0  0  0
 29 49  1  0  0  0  0
 30 50  1  0  0  0  0
 30 51  1  0  0  0  0
 30 52  1  0  0  0  0
M  END
> <PUBCHEM_COMPOUND_CID>
71535003

> <PUBCHEM_CONFORMER_RMSD>
1

> <PUBCHEM_CONFORMER_DIVERSEORDER>
1
73
87
88
44
114
12
30
49
92
36
120
10
72
93
33
21
84
101
106
57
54
107
35
50
25
121
122
103
62
58
96
123
76
52
27
85
115
86
13
47
55
112
34
65
98
82
89
90
39
8
45
94
67
51
63
66
56
68
111
126
91
118
16
117
97
83
71
29
80
78
77
116
20
113
60
11
59
64
37
124
26
32
70
104
24
6
31
38
9
74
75
4
42
14
15
23
127
79
95
119
19
3
18
109
108
41
22
28
53
61
99
43
105
102
5
48
69
81
125
100
7
2
40
17
110
46

> <PUBCHEM_MMFF94_PARTIAL_CHARGES>
36
1 -0.12
10 0.31
11 -0.71
13 0.28
14 0.3
15 0.3
16 0.28
17 0.62
18 0.28
19 0.39
2 -0.56
20 -0.14
22 0.11
23 -0.3
24 0.12
25 0.72
26 -0.3
27 0.08
28 -0.3
29 0.14
3 -0.36
30 0.26
4 -0.57
42 0.15
43 0.15
44 0.15
45 0.27
46 0.15
47 0.4
48 0.15
49 0.15
5 -0.66
6 -0.62
7 0.03
8 -0.57
9 -0.58

> <PUBCHEM_EFFECTIVE_ROTOR_COUNT>
9

> <PUBCHEM_PHARMACOPHORE_FEATURES>
12
1 11 acceptor
1 2 acceptor
1 23 hydrophobe
1 4 acceptor
1 7 cation
1 7 donor
1 9 donor
4 6 8 9 25 cation
5 10 11 27 28 29 rings
5 5 12 13 14 15 rings
5 7 21 22 24 26 rings
6 6 8 19 21 22 25 rings

> <PUBCHEM_HEAVY_ATOM_COUNT>
30

> <PUBCHEM_ATOM_DEF_STEREO_COUNT>
2

> <PUBCHEM_ATOM_UDEF_STEREO_COUNT>
0

> <PUBCHEM_BOND_DEF_STEREO_COUNT>
0

> <PUBCHEM_BOND_UDEF_STEREO_COUNT>
0

> <PUBCHEM_ISOTOPIC_ATOM_COUNT>
0

> <PUBCHEM_COMPONENT_COUNT>
1

> <PUBCHEM_CACTVS_TAUTO_COUNT>
9

> <PUBCHEM_CONFORMER_ID>
0443899B00000001

> <PUBCHEM_MMFF94_ENERGY>
69.2774

> <PUBCHEM_FEATURE_SELFOVERLAP>
61.013

> <PUBCHEM_SHAPE_FINGERPRINT>
10074138 170 17907830128020031442
10190206 1 16674731303461532636
1100329 8 17906169908116590317
12788726 201 17326619605955170284
13583140 156 18124311610465661925
1361 2 18338799034922744907
138480 1 17763175839770497110
14790565 3 18266740362399593615
14863182 85 18261690236641951188
15320467 1 18410852191668631591
17138139 8 17483355937186566079
17492 89 18266176141114916105
19319366 153 18272644675284398327
1979834 28 18263104204954542043
20028762 73 18271799151017342590
21133410 38 18201446921801788711
21197605 99 18263374749150495875
23559900 14 17978219470270463769
4015057 19 17689138025370079269
5104073 3 18338510838022380616
5309563 4 17763180237368901159
653340 110 17764580319824617352
7399639 24 18408604734230750665
79837 15 18339629149159094136
9777508 108 17980751955272024768

> <PUBCHEM_SHAPE_MULTIPOLES>
566.78
10.8
7.79
1.04
6.92
7.95
0.15
-5.11
4.61
-1.94
-1.51
1.37
-0.16
0.39

> <PUBCHEM_SHAPE_SELFOVERLAP>
1212.467

> <PUBCHEM_SHAPE_VOLUME>
316.3

> <PUBCHEM_COORDINATE_TYPE>
2
5
10

$$$$
117909640
  -OEChem-11282412143D

 67 71  0     0  0  0  0  0  0999 V2000
   -2.6421   -3.2209   -1.3673 F   0  0  0  0  0  0  0  0  0  0  0  0
   -0.1011   -4.1508   -1.5814 F   0  0  0  0  0  0  0  0  0  0  0  0
   -9.5476    0.2776    1.0241 O   0  0  0  0  0  0  0  0  0  0  0  0
   -1.3835    4.1004   -0.4129 O   0  0  0  0  0  0  0  0  0  0  0  0
   -5.8914   -0.0886    0.7344 N   0  0  0  0  0  0  0  0  0  0  0  0
   -3.2428   -1.0395    0.2452 N   0  0  0  0  0  0  0  0  0  0  0  0
    2.0004   -2.9537   -0.2027 N   0  0  0  0  0  0  0  0  0  0  0  0
    3.2420   -0.9934    0.1214 N   0  0  0  0  0  0  0  0  0  0  0  0
    4.3342   -3.1044   -0.2755 N   0  0  0  0  0  0  0  0  0  0  0  0
    0.2869    2.6917   -1.2873 N   0  0  0  0  0  0  0  0  0  0  0  0
   -4.8958    0.7806    0.0957 C   0  0  0  0  0  0  0  0  0  0  0  0
   -5.6654   -1.4835    0.3362 C   0  0  0  0  0  0  0  0  0  0  0  0
   -3.4752    0.3844    0.5058 C   0  0  0  0  0  0  0  0  0  0  0  0
   -4.2712   -1.9551    0.7555 C   0  0  0  0  0  0  0  0  0  0  0  0
   -7.2454    0.3338    0.3775 C   0  0  0  0  0  0  0  0  0  0  0  0
   -1.9333   -1.5196    0.1313 C   0  0  0  0  0  0  0  0  0  0  0  0
   -8.2516   -0.1692    1.4003 C   0  0  0  0  0  0  0  0  0  0  0  0
   -1.6589   -2.6175   -0.6845 C   0  0  0  0  0  0  0  0  0  0  0  0
   -0.9016   -0.8987    0.8355 C   0  0  0  0  0  0  0  0  0  0  0  0
   -0.3528   -3.0945   -0.7957 C   0  0  0  0  0  0  0  0  0  0  0  0
    0.4044   -1.3759    0.7244 C   0  0  0  0  0  0  0  0  0  0  0  0
    0.6788   -2.4737   -0.0912 C   0  0  0  0  0  0  0  0  0  0  0  0
    3.2556   -2.3210   -0.1149 C   0  0  0  0  0  0  0  0  0  0  0  0
    4.4368   -0.3826    0.2061 C   0  0  0  0  0  0  0  0  0  0  0  0
    4.5202    0.9865    0.4477 C   0  0  0  0  0  0  0  0  0  0  0  0
    5.6372   -1.0959    0.0552 C   0  0  0  0  0  0  0  0  0  0  0  0
    3.3161    1.7815    0.6150 C   0  0  0  0  0  0  0  0  0  0  0  0
    5.5136   -2.4614   -0.1849 C   0  0  0  0  0  0  0  0  0  0  0  0
    5.7530    1.6396    0.5389 C   0  0  0  0  0  0  0  0  0  0  0  0
    6.8807   -0.4465    0.1457 C   0  0  0  0  0  0  0  0  0  0  0  0
    6.9346    0.9225    0.3881 C   0  0  0  0  0  0  0  0  0  0  0  0
    2.3793    1.8540   -0.4160 C   0  0  0  0  0  0  0  0  0  0  0  0
    3.0969    2.4732    1.8064 C   0  0  0  0  0  0  0  0  0  0  0  0
    1.2233    2.6179   -0.2557 C   0  0  0  0  0  0  0  0  0  0  0  0
    1.9411    3.2374    1.9667 C   0  0  0  0  0  0  0  0  0  0  0  0
    1.0041    3.3096    0.9357 C   0  0  0  0  0  0  0  0  0  0  0  0
   -0.9206    3.4032   -1.3080 C   0  0  0  0  0  0  0  0  0  0  0  0
   -1.6421    3.2254   -2.6015 C   0  0  0  0  0  0  0  0  0  0  0  0
   -2.8167    3.8272   -2.8133 C   0  0  0  0  0  0  0  0  0  0  0  0
   -5.0550    1.8236    0.3959 H   0  0  0  0  0  0  0  0  0  0  0  0
   -4.9893    0.7373   -0.9980 H   0  0  0  0  0  0  0  0  0  0  0  0
   -5.7762   -1.6001   -0.7506 H   0  0  0  0  0  0  0  0  0  0  0  0
   -6.3928   -2.1514    0.8096 H   0  0  0  0  0  0  0  0  0  0  0  0
   -2.7722    1.0033   -0.0653 H   0  0  0  0  0  0  0  0  0  0  0  0
   -3.3280    0.5983    1.5722 H   0  0  0  0  0  0  0  0  0  0  0  0
   -4.1333   -2.9789    0.3918 H   0  0  0  0  0  0  0  0  0  0  0  0
   -4.2026   -1.9947    1.8506 H   0  0  0  0  0  0  0  0  0  0  0  0
   -7.5273    0.0233   -0.6374 H   0  0  0  0  0  0  0  0  0  0  0  0
   -7.3172    1.4302    0.3747 H   0  0  0  0  0  0  0  0  0  0  0  0
   -8.0273    0.2233    2.3981 H   0  0  0  0  0  0  0  0  0  0  0  0
   -8.2819   -1.2611    1.4502 H   0  0  0  0  0  0  0  0  0  0  0  0
   -1.0819   -0.0562    1.4971 H   0  0  0  0  0  0  0  0  0  0  0  0
    1.1658   -0.8931    1.3277 H   0  0  0  0  0  0  0  0  0  0  0  0
  -10.1687   -0.0482    1.6976 H   0  0  0  0  0  0  0  0  0  0  0  0
    2.0685   -3.9166   -0.5185 H   0  0  0  0  0  0  0  0  0  0  0  0
    5.8127    2.7104    0.7205 H   0  0  0  0  0  0  0  0  0  0  0  0
    6.3858   -3.0955   -0.3150 H   0  0  0  0  0  0  0  0  0  0  0  0
    7.8072   -1.0032    0.0279 H   0  0  0  0  0  0  0  0  0  0  0  0
    7.8932    1.4275    0.4570 H   0  0  0  0  0  0  0  0  0  0  0  0
    2.5480    1.3279   -1.3540 H   0  0  0  0  0  0  0  0  0  0  0  0
    3.8104    2.4249    2.6257 H   0  0  0  0  0  0  0  0  0  0  0  0
    1.7705    3.7740    2.8955 H   0  0  0  0  0  0  0  0  0  0  0  0
    0.1349    3.9200    1.1359 H   0  0  0  0  0  0  0  0  0  0  0  0
    0.5258    2.1565   -2.1196 H   0  0  0  0  0  0  0  0  0  0  0  0
   -1.2031    2.6000   -3.3711 H   0  0  0  0  0  0  0  0  0  0  0  0
   -3.3333    3.6903   -3.7576 H   0  0  0  0  0  0  0  0  0  0  0  0
   -3.2922    4.4595   -2.0718 H   0  0  0  0  0  0  0  0  0  0  0  0
  1 18  1  0  0  0  0
  2 20  1  0  0  0  0
  3 17  1  0  0  0  0
  3 54  1  0  0  0  0
  4 37  2  0  0  0  0
  5 11  1  0  0  0  0
  5 12  1  0  0  0  0
  5 15  1  0  0  0  0
  6 13  1  0  0  0  0
  6 14  1  0  0  0  0
  6 16  1  0  0  0  0
  7 22  1  0  0  0  0
  7 23  1  0  0  0  0
  7 55  1  0  0  0  0
  8 23  1  0  0  0  0
  8 24  2  0  0  0  0
  9 23  2  0  0  0  0
  9 28  1  0  0  0  0
 10 34  1  0  0  0  0
 10 37  1  0  0  0  0
 10 64  1  0  0  0  0
 11 13  1  0  0  0  0
 11 40  1  0  0  0  0
 11 41  1  0  0  0  0
 12 14  1  0  0  0  0
 12 42  1  0  0  0  0
 12 43  1  0  0  0  0
 13 44  1  0  0  0  0
 13 45  1  0  0  0  0
 14 46  1  0  0  0  0
 14 47  1  0  0  0  0
 15 17  1  0  0  0  0
 15 48  1  0  0  0  0
 15 49  1  0  0  0  0
 16 18  2  0  0  0  0
 16 19  1  0  0  0  0
 17 50  1  0  0  0  0
 17 51  1  0  0  0  0
 18 20  1  0  0  0  0
 19 21  2  0  0  0  0
 19 52  1  0  0  0  0
 20 22  2  0  0  0  0
 21 22  1  0  0  0  0
 21 53  1  0  0  0  0
 24 25  1  0  0  0  0
 24 26  1  0  0  0  0
 25 27  1  0  0  0  0
 25 29  2  0  0  0  0
 26 28  2  0  0  0  0
 26 30  1  0  0  0  0
 27 32  2  0  0  0  0
 27 33  1  0  0  0  0
 28 57  1  0  0  0  0
 29 31  1  0  0  0  0
 29 56  1  0  0  0  0
 30 31  2  0  0  0  0
 30 58  1  0  0  0  0
 31 59  1  0  0  0  0
 32 34  1  0  0  0  0
 32 60  1  0  0  0  0
 33 35  2  0  0  0  0
 33 61  1  0  0  0  0
 34 36  2  0  0  0  0
 35 36  1  0  0  0  0
 35 62  1  0  0  0  0
 36 63  1  0  0  0  0
 37 38  1  0  0  0  0
 38 39  2  0  0  0  0
 38 65  1  0  0  0  0
 39 66  1  0  0  0  0
 39 67  1  0  0  0  0
M  END
> <PUBCHEM_COMPOUND_CID>
117909640

> <PUBCHEM_CONFORMER_RMSD>
1.2

> <PUBCHEM_CONFORMER_DIVERSEORDER>
1
71
21
27
55
51
47
69
74
37
29
18
68
75
44
66
48
34
78
16
25
58
41
63
50
31
57
52
30
77
23
15
65
19
11
60
36
7
56
49
79
14
35
70
38
43
3
8
64
22
62
72
12
61
24
76
17
26
59
28
42
53
13
67
73
40
45
5
32
54
6
33
20
4
2
39
46
9
10

> <PUBCHEM_MMFF94_PARTIAL_CHARGES>
52
1 -0.19
10 -0.55
11 0.27
12 0.27
13 0.37
14 0.37
15 0.27
16 0.1
17 0.28
18 0.19
19 -0.15
2 -0.19
20 0.19
21 -0.15
22 0.1
23 0.72
24 0.31
28 0.16
29 -0.15
3 -0.68
30 -0.15
31 -0.15
32 -0.15
33 -0.15
34 0.12
35 -0.15
36 -0.15
37 0.62
38 -0.14
39 -0.3
4 -0.57
5 -0.81
52 0.15
53 0.15
54 0.4
55 0.4
56 0.15
57 0.15
58 0.15
59 0.15
6 -0.84
60 0.15
61 0.15
62 0.15
63 0.15
64 0.37
65 0.15
66 0.15
67 0.15
7 -0.6
8 -0.62
9 -0.62

> <PUBCHEM_EFFECTIVE_ROTOR_COUNT>
10.2

> <PUBCHEM_PHARMACOPHORE_FEATURES>
15
1 10 donor
1 3 acceptor
1 3 donor
1 39 hydrophobe
1 4 acceptor
1 5 cation
1 6 cation
1 7 donor
1 8 acceptor
4 7 8 9 23 cation
6 16 18 19 20 21 22 rings
6 24 25 26 29 30 31 rings
6 27 32 33 34 35 36 rings
6 5 6 11 12 13 14 rings
6 8 9 23 24 26 28 rings

> <PUBCHEM_HEAVY_ATOM_COUNT>
39

> <PUBCHEM_ATOM_DEF_STEREO_COUNT>
0

> <PUBCHEM_ATOM_UDEF_STEREO_COUNT>
0

> <PUBCHEM_BOND_DEF_STEREO_COUNT>
0

> <PUBCHEM_BOND_UDEF_STEREO_COUNT>
0

> <PUBCHEM_ISOTOPIC_ATOM_COUNT>
0

> <PUBCHEM_COMPONENT_COUNT>
1

> <PUBCHEM_CACTVS_TAUTO_COUNT>
43

> <PUBCHEM_CONFORMER_ID>
0707288800000001

> <PUBCHEM_MMFF94_ENERGY>
131.7248

> <PUBCHEM_FEATURE_SELFOVERLAP>
76.156

> <PUBCHEM_SHAPE_FINGERPRINT>
10290309 65 18267297647914364934
12677640 9 18056197114765947279
12925494 130 18269835474984998915
13383668 362 18117015462822845803
13402501 40 18409446981823297800
13811026 1 18335698300331657725
14017581 57 18059845191199401137
14117953 113 18131639967645582966
14295345 954 18337956817769989419
150020 26 18047768275258185897
15406563 190 18041262310639440680
15483637 11 17980204084543039656
16087824 20 18342742918818182160
19315958 150 18270680999226513168
20764821 26 18124020248885282728
21133410 38 17700139803479985473
21133410 90 17346036783078967929
3388396 114 16762239204331214396
4144715 1 18336278881115806259
469060 322 16298671560150372380
484989 97 18265332794917933662
50150288 127 16411818895708763032
508706 21 18188194425766370509

> <PUBCHEM_SHAPE_MULTIPOLES>
746.43
17.98
5.57
1.6
22.68
1.71
0.72
-2.9
-7.17
-0.96
2.7
1.29
1.78
2.53

> <PUBCHEM_SHAPE_SELFOVERLAP>
1631.613

> <PUBCHEM_SHAPE_VOLUME>
404.3

> <PUBCHEM_COORDINATE_TYPE>
2
5
10

$$$$
11494412
  -OEChem-11282412143D

 47 52  0     1  0  0  0  0  0999 V2000
    0.5904    3.6910   -1.4869 O   0  0  0  0  0  0  0  0  0  0  0  0
   -2.8916    3.0015    1.4376 O   0  0  0  0  0  0  0  0  0  0  0  0
    3.0518    0.7965    0.5242 N   0  0  0  0  0  0  0  0  0  0  0  0
   -1.2029    3.6526   -0.0149 N   0  0  0  0  0  0  0  0  0  0  0  0
   -4.2739   -0.4257   -0.7755 N   0  0  0  0  0  0  0  0  0  0  0  0
   -0.3055    1.5905   -0.6404 C   0  0  2  0  0  0  0  0  0  0  0  0
   -1.3545    1.3758    0.4754 C   0  0  2  0  0  0  0  0  0  0  0  0
    1.0143    1.0209   -0.3004 C   0  0  0  0  0  0  0  0  0  0  0  0
    2.7703   -0.3687   -0.1401 C   0  0  0  0  0  0  0  0  0  0  0  0
    1.4998   -0.2667   -0.6772 C   0  0  0  0  0  0  0  0  0  0  0  0
    1.9976    1.6531    0.4414 C   0  0  0  0  0  0  0  0  0  0  0  0
    4.3400    0.9772    1.1731 C   0  0  0  0  0  0  0  0  0  0  0  0
    3.6117   -1.4749   -0.2539 C   0  0  0  0  0  0  0  0  0  0  0  0
   -2.4128    0.4198    0.0879 C   0  0  0  0  0  0  0  0  0  0  0  0
    4.9798   -0.3813    1.5385 C   0  0  0  0  0  0  0  0  0  0  0  0
    4.9729   -1.4043    0.3746 C   0  0  0  0  0  0  0  0  0  0  0  0
   -0.2152    3.0934   -0.7876 C   0  0  0  0  0  0  0  0  0  0  0  0
   -1.9400    2.7503    0.7119 C   0  0  0  0  0  0  0  0  0  0  0  0
    1.0127   -1.3620   -1.4128 C   0  0  0  0  0  0  0  0  0  0  0  0
   -2.4424   -0.9731    0.3749 C   0  0  0  0  0  0  0  0  0  0  0  0
    3.1182   -2.5453   -1.0022 C   0  0  0  0  0  0  0  0  0  0  0  0
   -3.5515    0.7268   -0.6198 C   0  0  0  0  0  0  0  0  0  0  0  0
    1.8377   -2.4910   -1.5674 C   0  0  0  0  0  0  0  0  0  0  0  0
   -3.6206   -1.4799   -0.1777 C   0  0  0  0  0  0  0  0  0  0  0  0
   -1.5779   -1.8547    1.0539 C   0  0  0  0  0  0  0  0  0  0  0  0
   -3.9789   -2.8295   -0.0849 C   0  0  0  0  0  0  0  0  0  0  0  0
   -1.9235   -3.2073    1.1548 C   0  0  0  0  0  0  0  0  0  0  0  0
   -3.1060   -3.6850    0.5934 C   0  0  0  0  0  0  0  0  0  0  0  0
   -0.6534    1.2010   -1.6063 H   0  0  0  0  0  0  0  0  0  0  0  0
   -0.8866    1.0686    1.4200 H   0  0  0  0  0  0  0  0  0  0  0  0
    2.0294    2.6268    0.9118 H   0  0  0  0  0  0  0  0  0  0  0  0
    4.1869    1.5856    2.0701 H   0  0  0  0  0  0  0  0  0  0  0  0
    4.9729    1.5267    0.4677 H   0  0  0  0  0  0  0  0  0  0  0  0
    4.4189   -0.8112    2.3798 H   0  0  0  0  0  0  0  0  0  0  0  0
    6.0063   -0.2257    1.8887 H   0  0  0  0  0  0  0  0  0  0  0  0
    5.2669   -2.3879    0.7575 H   0  0  0  0  0  0  0  0  0  0  0  0
    5.7002   -1.1030   -0.3881 H   0  0  0  0  0  0  0  0  0  0  0  0
   -1.3746    4.6515    0.0161 H   0  0  0  0  0  0  0  0  0  0  0  0
    0.0253   -1.3451   -1.8640 H   0  0  0  0  0  0  0  0  0  0  0  0
    3.7276   -3.4335   -1.1487 H   0  0  0  0  0  0  0  0  0  0  0  0
   -3.9175    1.6555   -1.0357 H   0  0  0  0  0  0  0  0  0  0  0  0
    1.4720   -3.3394   -2.1410 H   0  0  0  0  0  0  0  0  0  0  0  0
   -5.1581   -0.4939   -1.2601 H   0  0  0  0  0  0  0  0  0  0  0  0
   -0.6539   -1.4997    1.5010 H   0  0  0  0  0  0  0  0  0  0  0  0
   -4.8992   -3.2024   -0.5217 H   0  0  0  0  0  0  0  0  0  0  0  0
   -1.2606   -3.8915    1.6777 H   0  0  0  0  0  0  0  0  0  0  0  0
   -3.3547   -4.7394    0.6836 H   0  0  0  0  0  0  0  0  0  0  0  0
  1 17  2  0  0  0  0
  2 18  2  0  0  0  0
  3  9  1  0  0  0  0
  3 11  1  0  0  0  0
  3 12  1  0  0  0  0
  4 17  1  0  0  0  0
  4 18  1  0  0  0  0
  4 38  1  0  0  0  0
  5 22  1  0  0  0  0
  5 24  1  0  0  0  0
  5 43  1  0  0  0  0
  6  7  1  0  0  0  0
  6  8  1  0  0  0  0
  6 17  1  0  0  0  0
  6 29  1  0  0  0  0
  7 14  1  0  0  0  0
  7 18  1  0  0  0  0
  7 30  1  0  0  0  0
  8 10  1  0  0  0  0
  8 11  2  0  0  0  0
  9 10  1  0  0  0  0
  9 13  2  0  0  0  0
 10 19  2  0  0  0  0
 11 31  1  0  0  0  0
 12 15  1  0  0  0  0
 12 32  1  0  0  0  0
 12 33  1  0  0  0  0
 13 16  1  0  0  0  0
 13 21  1  0  0  0  0
 14 20  1  0  0  0  0
 14 22  2  0  0  0  0
 15 16  1  0  0  0  0
 15 34  1  0  0  0  0
 15 35  1  0  0  0  0
 16 36  1  0  0  0  0
 16 37  1  0  0  0  0
 19 23  1  0  0  0  0
 19 39  1  0  0  0  0
 20 24  1  0  0  0  0
 20 25  2  0  0  0  0
 21 23  2  0  0  0  0
 21 40  1  0  0  0  0
 22 41  1  0  0  0  0
 23 42  1  0  0  0  0
 24 26  2  0  0  0  0
 25 27  1  0  0  0  0
 25 44  1  0  0  0  0
 26 28  1  0  0  0  0
 26 45  1  0  0  0  0
 27 28  2  0  0  0  0
 27 46  1  0  0  0  0
 28 47  1  0  0  0  0
M  END
> <PUBCHEM_COMPOUND_CID>
11494412

> <PUBCHEM_CONFORMER_RMSD>
0.8

> <PUBCHEM_CONFORMER_DIVERSEORDER>
1
10
4
11
14
3
13
12
6
5
7
2
9
8

> <PUBCHEM_MMFF94_PARTIAL_CHARGES>
36
1 -0.57
11 -0.3
12 0.26
13 -0.14
14 -0.18
16 0.14
17 0.57
18 0.57
19 -0.15
2 -0.57
21 -0.15
22 -0.3
23 -0.15
24 -0.15
25 -0.15
26 -0.15
27 -0.15
28 -0.15
3 0.05
31 0.15
38 0.37
39 0.15
4 -0.49
40 0.15
41 0.15
42 0.15
43 0.27
44 0.15
45 0.15
46 0.15
47 0.15
5 0.03
6 0.24
7 0.24
8 -0.18
9 -0.15

> <PUBCHEM_EFFECTIVE_ROTOR_COUNT>
3.2

> <PUBCHEM_PHARMACOPHORE_FEATURES>
12
1 1 acceptor
1 2 acceptor
1 3 cation
1 4 donor
1 5 cation
1 5 donor
5 3 8 9 10 11 rings
5 4 6 7 17 18 rings
5 5 14 20 22 24 rings
6 20 24 25 26 27 28 rings
6 3 9 12 13 15 16 rings
6 9 10 13 19 21 23 rings

> <PUBCHEM_HEAVY_ATOM_COUNT>
28

> <PUBCHEM_ATOM_DEF_STEREO_COUNT>
2

> <PUBCHEM_ATOM_UDEF_STEREO_COUNT>
0

> <PUBCHEM_BOND_DEF_STEREO_COUNT>
0

> <PUBCHEM_BOND_UDEF_STEREO_COUNT>
0

> <PUBCHEM_ISOTOPIC_ATOM_COUNT>
0

> <PUBCHEM_COMPONENT_COUNT>
1

> <PUBCHEM_CACTVS_TAUTO_COUNT>
8

> <PUBCHEM_CONFORMER_ID>
00AF640C00000001

> <PUBCHEM_MMFF94_ENERGY>
53.798

> <PUBCHEM_FEATURE_SELFOVERLAP>
61.212

> <PUBCHEM_SHAPE_FINGERPRINT>
10366900 7 18202279208467565592
10906281 52 18339654403187369501
1100329 8 18408892849907214233
11115154 58 17702357664926009749
11578080 2 14547090232727719497
11828532 37 17607804212902315611
12363563 72 18261681479209298970
12422481 6 18057067751928440531
12553582 1 18265918980074590607
12633257 1 18195243309202444178
13140716 1 18268151044561186097
13402501 40 18412821391298436842
1361 2 15960899836179274051
138480 1 15671260225058081413
140371 6 18411141359306744645
14081887 123 18410006603124564138
14178342 30 18341341023790496441
14223421 5 18272369729027184374
14725015 67 18123191199764789831
14866123 147 18123474882454352427
17980427 26 16680597696132601044
19591789 44 17545614348621478283
20600515 1 17895187831064038294
20642791 13 18271523109564196277
21033648 29 17834671596320793816
21421861 104 17976006415884036481
21987440 362 15657673817351055733
22122407 14 16128371571304778681
23558518 356 18269840826434777173
23559900 14 18339635737043171328
3298306 158 16893996414397776989
463206 1 17982164823387776719
484985 159 16452009409100627634
508706 21 18269277859449231894
5104073 3 18128241308732239666
5309563 4 18053106404406638811
57527452 28 16558453280304526487
57527585 103 17823722882774384715
6004065 56 18056460967502060943
613672 6 18339073899576268759
81228 2 18337685113368655569
9709674 26 18271247118828251486

> <PUBCHEM_SHAPE_MULTIPOLES>
549.55
8.6
4.76
1.31
4.48
1.44
-0.03
-5.02
2.15
-3.42
-0.12
0.57
-0.12
0.79

> <PUBCHEM_SHAPE_SELFOVERLAP>
1262.97

> <PUBCHEM_SHAPE_VOLUME>
285.7

> <PUBCHEM_COORDINATE_TYPE>
2
5
10

$$$$
11511120
  -OEChem-11282412143D

 58 61  0     0  0  0  0  0  0999 V2000
    5.9098   -3.3062   -2.2272 Cl  0  0  0  0  0  0  0  0  0  0  0  0
    5.5766   -5.1815    0.0447 F   0  0  0  0  0  0  0  0  0  0  0  0
   -1.3775   -0.2078    0.9376 O   0  0  0  0  0  0  0  0  0  0  0  0
   -0.8637    4.5830   -0.7004 O   0  0  0  0  0  0  0  0  0  0  0  0
   -6.2366   -1.4334    0.4361 N   0  0  0  0  0  0  0  0  0  0  0  0
   -1.5516    2.0155    0.2023 N   0  0  0  0  0  0  0  0  0  0  0  0
    2.9296   -0.3623    0.7308 N   0  0  0  0  0  0  0  0  0  0  0  0
    3.7607    3.4664   -0.6025 N   0  0  0  0  0  0  0  0  0  0  0  0
    4.4907    1.2762    0.0884 N   0  0  0  0  0  0  0  0  0  0  0  0
   -7.9447   -2.5471   -1.6577 C   0  0  0  0  0  0  0  0  0  0  0  0
   -6.4419   -2.3724   -1.8438 C   0  0  0  0  0  0  0  0  0  0  0  0
   -8.2870   -2.6743   -0.1775 C   0  0  0  0  0  0  0  0  0  0  0  0
   -5.9037   -1.2299   -0.9808 C   0  0  0  0  0  0  0  0  0  0  0  0
   -7.6904   -1.5225    0.6327 C   0  0  0  0  0  0  0  0  0  0  0  0
   -5.6750   -0.3581    1.2533 C   0  0  0  0  0  0  0  0  0  0  0  0
   -4.1811   -0.2995    1.1347 C   0  0  0  0  0  0  0  0  0  0  0  0
   -3.5189    0.7935    0.7297 C   0  0  0  0  0  0  0  0  0  0  0  0
   -2.0282    0.7878    0.6428 C   0  0  0  0  0  0  0  0  0  0  0  0
   -0.2007    2.3890   -0.0036 C   0  0  0  0  0  0  0  0  0  0  0  0
    2.1368    1.8247    0.0456 C   0  0  0  0  0  0  0  0  0  0  0  0
    0.7934    1.4629    0.2474 C   0  0  0  0  0  0  0  0  0  0  0  0
    0.1066    3.6591   -0.4480 C   0  0  0  0  0  0  0  0  0  0  0  0
    2.4792    3.1098   -0.4059 C   0  0  0  0  0  0  0  0  0  0  0  0
    3.1972    0.9522    0.2746 C   0  0  0  0  0  0  0  0  0  0  0  0
    1.4450    4.0112   -0.6463 C   0  0  0  0  0  0  0  0  0  0  0  0
    3.6017   -1.5821    0.5528 C   0  0  0  0  0  0  0  0  0  0  0  0
    4.6967    2.5306   -0.3442 C   0  0  0  0  0  0  0  0  0  0  0  0
    4.3383   -1.8170   -0.6121 C   0  0  0  0  0  0  0  0  0  0  0  0
    3.5390   -2.5702    1.5398 C   0  0  0  0  0  0  0  0  0  0  0  0
   -1.2527    5.4251    0.3824 C   0  0  0  0  0  0  0  0  0  0  0  0
    5.0060   -3.0290   -0.7884 C   0  0  0  0  0  0  0  0  0  0  0  0
    4.2064   -3.7823    1.3633 C   0  0  0  0  0  0  0  0  0  0  0  0
    4.9400   -4.0116    0.1993 C   0  0  0  0  0  0  0  0  0  0  0  0
   -8.2910   -3.4326   -2.2017 H   0  0  0  0  0  0  0  0  0  0  0  0
   -8.4692   -1.6820   -2.0817 H   0  0  0  0  0  0  0  0  0  0  0  0
   -5.9297   -3.3063   -1.5791 H   0  0  0  0  0  0  0  0  0  0  0  0
   -6.2217   -2.1751   -2.8992 H   0  0  0  0  0  0  0  0  0  0  0  0
   -9.3752   -2.6917   -0.0502 H   0  0  0  0  0  0  0  0  0  0  0  0
   -7.9048   -3.6292    0.2051 H   0  0  0  0  0  0  0  0  0  0  0  0
   -6.3066   -0.2751   -1.3443 H   0  0  0  0  0  0  0  0  0  0  0  0
   -4.8199   -1.2087   -1.1401 H   0  0  0  0  0  0  0  0  0  0  0  0
   -7.9121   -1.7006    1.6920 H   0  0  0  0  0  0  0  0  0  0  0  0
   -8.1818   -0.5820    0.3504 H   0  0  0  0  0  0  0  0  0  0  0  0
   -6.1271    0.6086    0.9941 H   0  0  0  0  0  0  0  0  0  0  0  0
   -5.9071   -0.5438    2.3097 H   0  0  0  0  0  0  0  0  0  0  0  0
   -3.6385   -1.1996    1.4140 H   0  0  0  0  0  0  0  0  0  0  0  0
   -4.0544    1.6970    0.4571 H   0  0  0  0  0  0  0  0  0  0  0  0
   -2.2288    2.7460   -0.0070 H   0  0  0  0  0  0  0  0  0  0  0  0
    0.5892    0.4598    0.5815 H   0  0  0  0  0  0  0  0  0  0  0  0
    1.6821    5.0143   -0.9980 H   0  0  0  0  0  0  0  0  0  0  0  0
    2.2564   -0.3856    1.4919 H   0  0  0  0  0  0  0  0  0  0  0  0
    5.7270    2.8240   -0.5047 H   0  0  0  0  0  0  0  0  0  0  0  0
    4.3851   -1.0632   -1.3950 H   0  0  0  0  0  0  0  0  0  0  0  0
    2.9719   -2.4056    2.4527 H   0  0  0  0  0  0  0  0  0  0  0  0
   -2.0616    6.0748    0.0373 H   0  0  0  0  0  0  0  0  0  0  0  0
   -1.6172    4.8321    1.2271 H   0  0  0  0  0  0  0  0  0  0  0  0
   -0.4125    6.0511    0.6992 H   0  0  0  0  0  0  0  0  0  0  0  0
    4.1554   -4.5475    2.1323 H   0  0  0  0  0  0  0  0  0  0  0  0
  1 31  1  0  0  0  0
  2 33  1  0  0  0  0
  3 18  2  0  0  0  0
  4 22  1  0  0  0  0
  4 30  1  0  0  0  0
  5 13  1  0  0  0  0
  5 14  1  0  0  0  0
  5 15  1  0  0  0  0
  6 18  1  0  0  0  0
  6 19  1  0  0  0  0
  6 48  1  0  0  0  0
  7 24  1  0  0  0  0
  7 26  1  0  0  0  0
  7 51  1  0  0  0  0
  8 23  1  0  0  0  0
  8 27  2  0  0  0  0
  9 24  2  0  0  0  0
  9 27  1  0  0  0  0
 10 11  1  0  0  0  0
 10 12  1  0  0  0  0
 10 34  1  0  0  0  0
 10 35  1  0  0  0  0
 11 13  1  0  0  0  0
 11 36  1  0  0  0  0
 11 37  1  0  0  0  0
 12 14  1  0  0  0  0
 12 38  1  0  0  0  0
 12 39  1  0  0  0  0
 13 40  1  0  0  0  0
 13 41  1  0  0  0  0
 14 42  1  0  0  0  0
 14 43  1  0  0  0  0
 15 16  1  0  0  0  0
 15 44  1  0  0  0  0
 15 45  1  0  0  0  0
 16 17  2  0  0  0  0
 16 46  1  0  0  0  0
 17 18  1  0  0  0  0
 17 47  1  0  0  0  0
 19 21  1  0  0  0  0
 19 22  2  0  0  0  0
 20 21  2  0  0  0  0
 20 23  1  0  0  0  0
 20 24  1  0  0  0  0
 21 49  1  0  0  0  0
 22 25  1  0  0  0  0
 23 25  2  0  0  0  0
 25 50  1  0  0  0  0
 26 28  2  0  0  0  0
 26 29  1  0  0  0  0
 27 52  1  0  0  0  0
 28 31  1  0  0  0  0
 28 53  1  0  0  0  0
 29 32  2  0  0  0  0
 29 54  1  0  0  0  0
 30 55  1  0  0  0  0
 30 56  1  0  0  0  0
 30 57  1  0  0  0  0
 31 33  2  0  0  0  0
 32 33  1  0  0  0  0
 32 58  1  0  0  0  0
M  END
> <PUBCHEM_COMPOUND_CID>
11511120

> <PUBCHEM_CONFORMER_RMSD>
1

> <PUBCHEM_CONFORMER_DIVERSEORDER>
1
13
54
82
84
94
91
56
20
11
47
71
63
93
49
12
87
25
92
67
96
29
65
77
60
79
44
95
23
41
74
48
46
88
51
17
21
28
27
26
52
75
59
53
90
16
19
10
30
58
78
5
18
35
43
80
70
14
64
81
8
32
15
6
57
24
40
86
73
68
72
9
55
76
38
61
69
7
42
85
4
33
36
39
83
34
3
2
31
66
89
50
45
37
62
22

> <PUBCHEM_MMFF94_PARTIAL_CHARGES>
39
1 -0.18
13 0.27
14 0.27
15 0.41
16 -0.29
17 -0.14
18 0.62
19 0.12
2 -0.19
21 -0.15
22 0.08
23 0.31
24 0.41
25 -0.15
26 0.1
27 0.47
28 -0.15
29 -0.15
3 -0.57
30 0.28
31 0.18
32 -0.15
33 0.19
4 -0.36
46 0.15
47 0.15
48 0.37
49 0.15
5 -0.81
50 0.15
51 0.4
52 0.15
53 0.15
54 0.15
58 0.15
6 -0.55
7 -0.6
8 -0.62
9 -0.62

> <PUBCHEM_EFFECTIVE_ROTOR_COUNT>
9.2

> <PUBCHEM_PHARMACOPHORE_FEATURES>
11
1 3 acceptor
1 4 acceptor
1 5 cation
1 6 donor
1 7 donor
3 7 9 24 cation
3 8 9 27 cation
6 19 20 21 22 23 25 rings
6 26 28 29 31 32 33 rings
6 5 10 11 12 13 14 rings
6 8 9 20 23 24 27 rings

> <PUBCHEM_HEAVY_ATOM_COUNT>
33

> <PUBCHEM_ATOM_DEF_STEREO_COUNT>
0

> <PUBCHEM_ATOM_UDEF_STEREO_COUNT>
0

> <PUBCHEM_BOND_DEF_STEREO_COUNT>
1

> <PUBCHEM_BOND_UDEF_STEREO_COUNT>
0

> <PUBCHEM_ISOTOPIC_ATOM_COUNT>
0

> <PUBCHEM_COMPONENT_COUNT>
1

> <PUBCHEM_CACTVS_TAUTO_COUNT>
6

> <PUBCHEM_CONFORMER_ID>
00AFA55000000001

> <PUBCHEM_MMFF94_ENERGY>
104.1228

> <PUBCHEM_FEATURE_SELFOVERLAP>
55.994

> <PUBCHEM_SHAPE_FINGERPRINT>
10622 236 18342455937730002881
10693767 8 18411131463939517011
10951579 204 16588568831012295903
11135609 149 18336808862952575653
11409948 41 18268980059987820279
11607047 403 18270665593837445760
12107183 9 18124048840483294193
12147406 95 18410860932412428318
12202916 173 17968931028552881032
13533116 47 18341049718018488057
1361 2 18337954592480824275
13835254 42 18341894086793402921
13911852 28 18410293597302899233
13989917 61 18336552736593771419
14026016 60 18267564967143364879
14040222 275 18339099106665684030
14910700 183 18053934328273250576
15152005 1 18270117894681253447
15183329 4 18192424385265137133
15274700 232 17691124838249536111
15803439 3 16740628204883383892
15968369 26 17825685601402943370
17492 89 18337391530963806480
17852330 134 18263626439319422839
19315092 285 18059858359056693960
20775438 99 18335416936829522706
21133410 171 17318410299148197315
21585483 132 18129368458375241487
22033318 11 18201736054741098499
22311459 1 18265617778377178985
23569914 152 17977347631703208149
24893989 43 17987524869332070126
255183 451 18341058432328088886
3504750 166 18130792210258166081
3534868 343 18262811785964441773
50009960 94 18042385964330544810
5309563 4 18337112250377702579
57816373 69 18059860549627417391
6058803 2 18269859569789005073
6700243 42 17625843577845095334
70251023 43 18408886209344319552
9555976 147 17632027338724406585
9849439 229 10483112187412215958
9980921 52 18129362891939149543

> <PUBCHEM_SHAPE_MULTIPOLES>
637.08
20.5
7.8
1.41
42.2
3.27
0.37
-31.46
4.94
-10.21
1.43
0.39
-1.41
-1.97

> <PUBCHEM_SHAPE_SELFOVERLAP>
1361.153

> <PUBCHEM_SHAPE_VOLUME>
353.3

> <PUBCHEM_COORDINATE_TYPE>
2
5
10

$$$$
25134326
  -OEChem-11282412143D

 81 85  0     0  0  0  0  0  0999 V2000
    5.8036    3.0946   -0.0648 S   0  0  0  0  0  0  0  0  0  0  0  0
   -0.1499   -4.9152   -0.2047 O   0  0  0  0  0  0  0  0  0  0  0  0
    6.8000    2.3402   -0.8085 O   0  0  0  0  0  0  0  0  0  0  0  0
    5.8777    4.5468   -0.0171 O   0  0  0  0  0  0  0  0  0  0  0  0
   -6.7780    0.8880    0.2400 N   0  0  0  0  0  0  0  0  0  0  0  0
   -3.0372   -1.0978    0.1352 N   0  0  0  0  0  0  0  0  0  0  0  0
   -9.4350    1.9971   -0.0219 N   0  0  0  0  0  0  0  0  0  0  0  0
    2.0803   -3.3480    0.4947 N   0  0  0  0  0  0  0  0  0  0  0  0
    3.4275   -1.5231   -0.0833 N   0  0  0  0  0  0  0  0  0  0  0  0
    4.4026   -3.6459    0.4653 N   0  0  0  0  0  0  0  0  0  0  0  0
    4.8290    0.2682   -0.6529 N   0  0  0  0  0  0  0  0  0  0  0  0
    5.8113   -1.7944   -0.1224 N   0  0  0  0  0  0  0  0  0  0  0  0
   -5.6720    0.0405   -0.2014 C   0  0  0  0  0  0  0  0  0  0  0  0
   -4.4067    0.8734   -0.4250 C   0  0  0  0  0  0  0  0  0  0  0  0
   -5.3967   -1.0451    0.8413 C   0  0  0  0  0  0  0  0  0  0  0  0
   -3.2292   -0.0109   -0.8351 C   0  0  0  0  0  0  0  0  0  0  0  0
   -4.2134   -1.9231    0.4316 C   0  0  0  0  0  0  0  0  0  0  0  0
   -7.0790    1.9167   -0.7630 C   0  0  0  0  0  0  0  0  0  0  0  0
   -7.9719    0.0821    0.5224 C   0  0  0  0  0  0  0  0  0  0  0  0
   -8.2412    2.8039   -0.3038 C   0  0  0  0  0  0  0  0  0  0  0  0
   -9.1333    0.9699    0.9825 C   0  0  0  0  0  0  0  0  0  0  0  0
   -1.7595   -1.6636    0.2239 C   0  0  0  0  0  0  0  0  0  0  0  0
  -10.5420    2.8440    0.4178 C   0  0  0  0  0  0  0  0  0  0  0  0
   -1.5787   -3.0222   -0.0358 C   0  0  0  0  0  0  0  0  0  0  0  0
   -0.6675   -0.8684    0.5719 C   0  0  0  0  0  0  0  0  0  0  0  0
   -0.3058   -3.5858    0.0527 C   0  0  0  0  0  0  0  0  0  0  0  0
    0.6054   -1.4321    0.6607 C   0  0  0  0  0  0  0  0  0  0  0  0
    0.7863   -2.7908    0.4011 C   0  0  0  0  0  0  0  0  0  0  0  0
    0.1256   -5.2852   -1.5540 C   0  0  0  0  0  0  0  0  0  0  0  0
    3.3648   -2.8137    0.2818 C   0  0  0  0  0  0  0  0  0  0  0  0
    5.8166    2.5160    1.6157 C   0  0  0  0  0  0  0  0  0  0  0  0
    4.2254    2.6321   -0.6665 C   0  0  0  0  0  0  0  0  0  0  0  0
    3.8985    1.2957   -0.8961 C   0  0  0  0  0  0  0  0  0  0  0  0
    4.6713    3.1420    2.3975 C   0  0  0  0  0  0  0  0  0  0  0  0
    7.1604    2.8126    2.2648 C   0  0  0  0  0  0  0  0  0  0  0  0
    3.2867    3.6329   -0.9174 C   0  0  0  0  0  0  0  0  0  0  0  0
    4.6823   -1.0821   -0.2678 C   0  0  0  0  0  0  0  0  0  0  0  0
    2.6327    0.9601   -1.3771 C   0  0  0  0  0  0  0  0  0  0  0  0
    2.0210    3.2973   -1.3986 C   0  0  0  0  0  0  0  0  0  0  0  0
    1.6939    1.9608   -1.6287 C   0  0  0  0  0  0  0  0  0  0  0  0
    5.5943   -3.0675    0.2453 C   0  0  0  0  0  0  0  0  0  0  0  0
   -5.9349   -0.4522   -1.1491 H   0  0  0  0  0  0  0  0  0  0  0  0
   -4.1472    1.4217    0.4903 H   0  0  0  0  0  0  0  0  0  0  0  0
   -4.5271    1.6083   -1.2265 H   0  0  0  0  0  0  0  0  0  0  0  0
   -6.2375   -1.7339    0.9658 H   0  0  0  0  0  0  0  0  0  0  0  0
   -5.1890   -0.5904    1.8192 H   0  0  0  0  0  0  0  0  0  0  0  0
   -3.4094   -0.4424   -1.8281 H   0  0  0  0  0  0  0  0  0  0  0  0
   -2.3400    0.6247   -0.9195 H   0  0  0  0  0  0  0  0  0  0  0  0
   -4.0068   -2.6143    1.2584 H   0  0  0  0  0  0  0  0  0  0  0  0
   -4.4828   -2.5192   -0.4495 H   0  0  0  0  0  0  0  0  0  0  0  0
   -7.3179    1.4652   -1.7353 H   0  0  0  0  0  0  0  0  0  0  0  0
   -6.2378    2.6000   -0.9089 H   0  0  0  0  0  0  0  0  0  0  0  0
   -7.8119   -0.6093    1.3544 H   0  0  0  0  0  0  0  0  0  0  0  0
   -8.2747   -0.5043   -0.3554 H   0  0  0  0  0  0  0  0  0  0  0  0
   -7.9397    3.3792    0.5824 H   0  0  0  0  0  0  0  0  0  0  0  0
   -8.4618    3.5244   -1.1009 H   0  0  0  0  0  0  0  0  0  0  0  0
  -10.0139    0.3345    1.1372 H   0  0  0  0  0  0  0  0  0  0  0  0
   -8.8878    1.4292    1.9500 H   0  0  0  0  0  0  0  0  0  0  0  0
  -11.4431    2.2432    0.5835 H   0  0  0  0  0  0  0  0  0  0  0  0
  -10.7928    3.5801   -0.3541 H   0  0  0  0  0  0  0  0  0  0  0  0
  -10.3107    3.3815    1.3445 H   0  0  0  0  0  0  0  0  0  0  0  0
   -2.4090   -3.6620   -0.3232 H   0  0  0  0  0  0  0  0  0  0  0  0
   -0.7922    0.1867    0.8019 H   0  0  0  0  0  0  0  0  0  0  0  0
    1.4140   -0.7877    0.9886 H   0  0  0  0  0  0  0  0  0  0  0  0
    2.0908   -4.3543    0.6313 H   0  0  0  0  0  0  0  0  0  0  0  0
    0.2442   -6.3715   -1.5937 H   0  0  0  0  0  0  0  0  0  0  0  0
    1.0525   -4.8195   -1.9031 H   0  0  0  0  0  0  0  0  0  0  0  0
   -0.7061   -5.0002   -2.2061 H   0  0  0  0  0  0  0  0  0  0  0  0
    5.6862    1.4301    1.5948 H   0  0  0  0  0  0  0  0  0  0  0  0
    4.7200    4.2360    2.3881 H   0  0  0  0  0  0  0  0  0  0  0  0
    3.6953    2.8461    2.0020 H   0  0  0  0  0  0  0  0  0  0  0  0
    4.7016    2.8185    3.4439 H   0  0  0  0  0  0  0  0  0  0  0  0
    7.3603    3.8890    2.3006 H   0  0  0  0  0  0  0  0  0  0  0  0
    7.9790    2.3427    1.7095 H   0  0  0  0  0  0  0  0  0  0  0  0
    7.1900    2.4295    3.2902 H   0  0  0  0  0  0  0  0  0  0  0  0
    3.5088    4.6821   -0.7470 H   0  0  0  0  0  0  0  0  0  0  0  0
    5.8030    0.5492   -0.6852 H   0  0  0  0  0  0  0  0  0  0  0  0
    2.3503   -0.0575   -1.6237 H   0  0  0  0  0  0  0  0  0  0  0  0
    1.2905    4.0763   -1.5960 H   0  0  0  0  0  0  0  0  0  0  0  0
    0.7122    1.7007   -2.0139 H   0  0  0  0  0  0  0  0  0  0  0  0
    6.4695   -3.6912    0.3782 H   0  0  0  0  0  0  0  0  0  0  0  0
  1  3  2  0  0  0  0
  1  4  2  0  0  0  0
  1 31  1  0  0  0  0
  1 32  1  0  0  0  0
  2 26  1  0  0  0  0
  2 29  1  0  0  0  0
  5 13  1  0  0  0  0
  5 18  1  0  0  0  0
  5 19  1  0  0  0  0
  6 16  1  0  0  0  0
  6 17  1  0  0  0  0
  6 22  1  0  0  0  0
  7 20  1  0  0  0  0
  7 21  1  0  0  0  0
  7 23  1  0  0  0  0
  8 28  1  0  0  0  0
  8 30  1  0  0  0  0
  8 65  1  0  0  0  0
  9 30  1  0  0  0  0
  9 37  2  0  0  0  0
 10 30  2  0  0  0  0
 10 41  1  0  0  0  0
 11 33  1  0  0  0  0
 11 37  1  0  0  0  0
 11 77  1  0  0  0  0
 12 37  1  0  0  0  0
 12 41  2  0  0  0  0
 13 14  1  0  0  0  0
 13 15  1  0  0  0  0
 13 42  1  0  0  0  0
 14 16  1  0  0  0  0
 14 43  1  0  0  0  0
 14 44  1  0  0  0  0
 15 17  1  0  0  0  0
 15 45  1  0  0  0  0
 15 46  1  0  0  0  0
 16 47  1  0  0  0  0
 16 48  1  0  0  0  0
 17 49  1  0  0  0  0
 17 50  1  0  0  0  0
 18 20  1  0  0  0  0
 18 51  1  0  0  0  0
 18 52  1  0  0  0  0
 19 21  1  0  0  0  0
 19 53  1  0  0  0  0
 19 54  1  0  0  0  0
 20 55  1  0  0  0  0
 20 56  1  0  0  0  0
 21 57  1  0  0  0  0
 21 58  1  0  0  0  0
 22 24  2  0  0  0  0
 22 25  1  0  0  0  0
 23 59  1  0  0  0  0
 23 60  1  0  0  0  0
 23 61  1  0  0  0  0
 24 26  1  0  0  0  0
 24 62  1  0  0  0  0
 25 27  2  0  0  0  0
 25 63  1  0  0  0  0
 26 28  2  0  0  0  0
 27 28  1  0  0  0  0
 27 64  1  0  0  0  0
 29 66  1  0  0  0  0
 29 67  1  0  0  0  0
 29 68  1  0  0  0  0
 31 34  1  0  0  0  0
 31 35  1  0  0  0  0
 31 69  1  0  0  0  0
 32 33  1  0  0  0  0
 32 36  2  0  0  0  0
 33 38  2  0  0  0  0
 34 70  1  0  0  0  0
 34 71  1  0  0  0  0
 34 72  1  0  0  0  0
 35 73  1  0  0  0  0
 35 74  1  0  0  0  0
 35 75  1  0  0  0  0
 36 39  1  0  0  0  0
 36 76  1  0  0  0  0
 38 40  1  0  0  0  0
 38 78  1  0  0  0  0
 39 40  2  0  0  0  0
 39 79  1  0  0  0  0
 40 80  1  0  0  0  0
 41 81  1  0  0  0  0
M  END
> <PUBCHEM_COMPOUND_CID>
25134326

> <PUBCHEM_CONFORMER_RMSD>
1.2

> <PUBCHEM_CONFORMER_DIVERSEORDER>
1
107
123
81
93
95
167
73
105
82
89
142
180
4
57
62
40
115
181
112
21
99
173
100
46
94
190
88
83
125
130
22
48
45
128
183
56
159
23
186
34
31
71
137
135
72
25
178
61
151
147
30
149
13
189
75
96
184
117
87
138
188
158
169
109
168
97
103
77
177
52
80
185
54
58
161
98
15
146
33
59
5
26
79
42
7
74
16
119
145
176
106
6
133
36
136
84
11
47
143
104
86
182
32
157
148
50
76
68
122
156
41
179
187
92
67
129
49
51
141
65
20
69
102
191
91
8
44
126
101
78
118
144
120
113
9
140
55
17
160
116
164
37
110
162
63
165
2
150
139
174
170
18
28
85
124
153
29
14
163
70
171
134
38
19
66
175
108
60
111
64
35
152
53
24
90
27
121
127
155
43
172
166
131
154
10
39
132
12
3
114

> <PUBCHEM_MMFF94_PARTIAL_CHARGES>
47
1 1.2
10 -0.62
11 -0.6
12 -0.62
13 0.27
16 0.37
17 0.37
18 0.27
19 0.27
2 -0.36
20 0.27
21 0.27
22 0.1
23 0.27
24 -0.15
25 -0.15
26 0.08
27 -0.15
28 0.1
29 0.28
3 -0.65
30 0.72
31 0.11
32 -0.01
33 0.1
36 -0.15
37 0.72
38 -0.15
39 -0.15
4 -0.65
40 -0.15
41 0.47
5 -0.81
6 -0.84
62 0.15
63 0.15
64 0.15
65 0.4
7 -0.81
76 0.15
77 0.4
78 0.15
79 0.15
8 -0.6
80 0.15
81 0.15
9 -0.62

> <PUBCHEM_EFFECTIVE_ROTOR_COUNT>
11.4

> <PUBCHEM_PHARMACOPHORE_FEATURES>
16
1 11 donor
1 2 acceptor
1 3 acceptor
1 4 acceptor
1 5 cation
1 6 cation
1 7 cation
1 8 donor
3 31 34 35 hydrophobe
4 8 9 10 30 cation
4 9 11 12 37 cation
6 22 24 25 26 27 28 rings
6 32 33 36 38 39 40 rings
6 5 7 18 19 20 21 rings
6 6 13 14 15 16 17 rings
6 9 10 12 30 37 41 rings

> <PUBCHEM_HEAVY_ATOM_COUNT>
41

> <PUBCHEM_ATOM_DEF_STEREO_COUNT>
0

> <PUBCHEM_ATOM_UDEF_STEREO_COUNT>
0

> <PUBCHEM_BOND_DEF_STEREO_COUNT>
0

> <PUBCHEM_BOND_UDEF_STEREO_COUNT>
0

> <PUBCHEM_ISOTOPIC_ATOM_COUNT>
0

> <PUBCHEM_COMPONENT_COUNT>
1

> <PUBCHEM_CACTVS_TAUTO_COUNT>
9

> <PUBCHEM_CONFORMER_ID>
017F84F600000001

> <PUBCHEM_MMFF94_ENERGY>
139.1715

> <PUBCHEM_FEATURE_SELFOVERLAP>
81.262

> <PUBCHEM_SHAPE_FINGERPRINT>
10050765 1 18334862757816452275
10439779 11 18193832872208045144
10673678 19 18411987949179968539
11135609 127 18411697661035556247
11456790 92 17749952137513148066
11578821 258 18123469381472463449
11621639 179 18187650167990403574
11966995 178 18338811026582198717
12677640 9 17837212571660517048
12925494 130 18333455356830285611
13165053 371 18266455404141193409
14117953 113 18339930299365884910
14294032 229 18123477343080580139
14394314 77 18410014377395509469
14400156 260 18186240624702174786
14725015 67 18042118765988538698
15145343 34 18201433719055775849
15420108 30 18123737906932385390
15439362 3 18336548304360763242
15840311 113 18336268959925312535
16087824 20 18335425613179814358
19053607 189 18192148411773008216
19302320 297 18334856078435087482
19304671 126 17988653998958814380
20511986 3 17988361593579946430
20580484 21 18335985285504165101
20691028 202 18411135874411675527
21033648 29 18186800313620546730
21133410 230 18336536107798374714
21298829 104 18337110167371214116
23569914 2 15908527744276048968
24204213 163 18410566259887725962
3711267 37 18059019381126677913
4093350 32 17989491818323885572
4112364 45 18413106135356910831
5109719 28 18335433327004550315
6176135 31 18261671583652453108
99344 41 18336265734204451821

> <PUBCHEM_SHAPE_MULTIPOLES>
790.15
26.6
6.95
1.4
63.17
4.17
0.36
-32.02
6.6
-8.71
-0.56
-2.13
-1.13
1.01

> <PUBCHEM_SHAPE_SELFOVERLAP>
1666.082

> <PUBCHEM_SHAPE_VOLUME>
445.8

> <PUBCHEM_COORDINATE_TYPE>
2
5
10

$$$$
11154925
  -OEChem-11282412143D

 56 59  0     1  0  0  0  0  0999 V2000
   -3.6007    0.2491   -1.9612 F   0  0  0  0  0  0  0  0  0  0  0  0
    3.4577   -0.5689   -0.4018 O   0  0  0  0  0  0  0  0  0  0  0  0
   -1.8877    0.6637    0.1453 O   0  0  0  0  0  0  0  0  0  0  0  0
    6.1040   -0.0502    0.3424 O   0  0  0  0  0  0  0  0  0  0  0  0
    8.3312    0.0293   -0.2441 O   0  0  0  0  0  0  0  0  0  0  0  0
    0.3998   -2.1063    0.3887 N   0  0  0  0  0  0  0  0  0  0  0  0
   -7.3396    0.9213    0.6630 N   0  0  0  0  0  0  0  0  0  0  0  0
   -0.4216   -3.1369    0.7329 N   0  0  0  0  0  0  0  0  0  0  0  0
   -2.2416   -1.5470    0.6709 N   0  0  0  0  0  0  0  0  0  0  0  0
    8.5726    2.5715    0.6645 N   0  0  0  0  0  0  0  0  0  0  0  0
   -0.0372   -0.8229    0.1815 C   0  0  0  0  0  0  0  0  0  0  0  0
    1.0461   -0.0424   -0.1489 C   0  0  0  0  0  0  0  0  0  0  0  0
    2.1827   -0.8915   -0.1397 C   0  0  0  0  0  0  0  0  0  0  0  0
    5.8042   -1.0465   -0.6339 C   0  0  1  0  0  0  0  0  0  0  0  0
    4.4271   -1.6201   -0.3252 C   0  0  0  0  0  0  0  0  0  0  0  0
    1.7552   -2.1600    0.1950 C   0  0  0  0  0  0  0  0  0  0  0  0
   -5.4893    0.6089   -0.5436 C   0  0  0  0  0  0  0  0  0  0  0  0
   -1.4304   -0.5946    0.3443 C   0  0  0  0  0  0  0  0  0  0  0  0
   -5.9650    0.9007    0.7365 C   0  0  0  0  0  0  0  0  0  0  0  0
    1.0834    1.4010   -0.4624 C   0  0  0  0  0  0  0  0  0  0  0  0
   -3.2352    0.7397    0.3340 C   0  0  0  0  0  0  0  0  0  0  0  0
   -7.7481    0.6533   -0.6160 C   0  0  0  0  0  0  0  0  0  0  0  0
   -4.0975    0.5271   -0.7476 C   0  0  0  0  0  0  0  0  0  0  0  0
   -6.6255    0.4553   -1.3864 C   0  0  0  0  0  0  0  0  0  0  0  0
   -5.1149    1.1158    1.8273 C   0  0  0  0  0  0  0  0  0  0  0  0
    5.8452   -0.4100   -2.0149 C   0  0  0  0  0  0  0  0  0  0  0  0
   -3.7383    1.0294    1.6008 C   0  0  0  0  0  0  0  0  0  0  0  0
   -9.1788    0.6139   -0.9705 C   0  0  0  0  0  0  0  0  0  0  0  0
    7.2428    1.9714    0.7539 C   0  0  2  0  0  0  0  0  0  0  0  0
   -1.6793   -2.8022    0.8529 C   0  0  0  0  0  0  0  0  0  0  0  0
    7.3271    0.5539    0.2197 C   0  0  0  0  0  0  0  0  0  0  0  0
    6.2515    2.7942   -0.0575 C   0  0  0  0  0  0  0  0  0  0  0  0
    6.5412   -1.8559   -0.5650 H   0  0  0  0  0  0  0  0  0  0  0  0
    4.1875   -2.4118   -1.0455 H   0  0  0  0  0  0  0  0  0  0  0  0
    4.4364   -2.0278    0.6936 H   0  0  0  0  0  0  0  0  0  0  0  0
    2.2795   -3.0988    0.3155 H   0  0  0  0  0  0  0  0  0  0  0  0
    2.0978    1.7464   -0.6861 H   0  0  0  0  0  0  0  0  0  0  0  0
    0.4576    1.6202   -1.3338 H   0  0  0  0  0  0  0  0  0  0  0  0
    0.7120    1.9869    0.3847 H   0  0  0  0  0  0  0  0  0  0  0  0
   -6.6191    0.2245   -2.4432 H   0  0  0  0  0  0  0  0  0  0  0  0
   -7.9551    1.1077    1.4429 H   0  0  0  0  0  0  0  0  0  0  0  0
   -5.5056    1.3416    2.8137 H   0  0  0  0  0  0  0  0  0  0  0  0
    6.8605   -0.1222   -2.3048 H   0  0  0  0  0  0  0  0  0  0  0  0
    5.4790   -1.1064   -2.7766 H   0  0  0  0  0  0  0  0  0  0  0  0
    5.2377    0.5008   -2.0576 H   0  0  0  0  0  0  0  0  0  0  0  0
   -3.0563    1.1940    2.4319 H   0  0  0  0  0  0  0  0  0  0  0  0
   -9.7004   -0.1550   -0.3915 H   0  0  0  0  0  0  0  0  0  0  0  0
   -9.3167    0.3863   -2.0325 H   0  0  0  0  0  0  0  0  0  0  0  0
   -9.6545    1.5792   -0.7692 H   0  0  0  0  0  0  0  0  0  0  0  0
    6.9478    1.9264    1.8075 H   0  0  0  0  0  0  0  0  0  0  0  0
   -2.3883   -3.5995    1.1304 H   0  0  0  0  0  0  0  0  0  0  0  0
    6.5024    2.7914   -1.1246 H   0  0  0  0  0  0  0  0  0  0  0  0
    5.2360    2.3944    0.0389 H   0  0  0  0  0  0  0  0  0  0  0  0
    6.2277    3.8346    0.2849 H   0  0  0  0  0  0  0  0  0  0  0  0
    8.8466    2.6627   -0.3136 H   0  0  0  0  0  0  0  0  0  0  0  0
    8.5428    3.5215    1.0335 H   0  0  0  0  0  0  0  0  0  0  0  0
  1 23  1  0  0  0  0
  2 13  1  0  0  0  0
  2 15  1  0  0  0  0
  3 18  1  0  0  0  0
  3 21  1  0  0  0  0
  4 14  1  0  0  0  0
  4 31  1  0  0  0  0
  5 31  2  0  0  0  0
  6  8  1  0  0  0  0
  6 11  1  0  0  0  0
  6 16  1  0  0  0  0
  7 19  1  0  0  0  0
  7 22  1  0  0  0  0
  7 41  1  0  0  0  0
  8 30  2  0  0  0  0
  9 18  2  0  0  0  0
  9 30  1  0  0  0  0
 10 29  1  0  0  0  0
 10 55  1  0  0  0  0
 10 56  1  0  0  0  0
 11 12  2  0  0  0  0
 11 18  1  0  0  0  0
 12 13  1  0  0  0  0
 12 20  1  0  0  0  0
 13 16  2  0  0  0  0
 14 15  1  0  0  0  0
 14 26  1  0  0  0  0
 14 33  1  0  0  0  0
 15 34  1  0  0  0  0
 15 35  1  0  0  0  0
 16 36  1  0  0  0  0
 17 19  2  0  0  0  0
 17 23  1  0  0  0  0
 17 24  1  0  0  0  0
 19 25  1  0  0  0  0
 20 37  1  0  0  0  0
 20 38  1  0  0  0  0
 20 39  1  0  0  0  0
 21 23  2  0  0  0  0
 21 27  1  0  0  0  0
 22 24  2  0  0  0  0
 22 28  1  0  0  0  0
 24 40  1  0  0  0  0
 25 27  2  0  0  0  0
 25 42  1  0  0  0  0
 26 43  1  0  0  0  0
 26 44  1  0  0  0  0
 26 45  1  0  0  0  0
 27 46  1  0  0  0  0
 28 47  1  0  0  0  0
 28 48  1  0  0  0  0
 28 49  1  0  0  0  0
 29 31  1  0  0  0  0
 29 32  1  0  0  0  0
 29 50  1  0  0  0  0
 30 51  1  0  0  0  0
 32 52  1  0  0  0  0
 32 53  1  0  0  0  0
 32 54  1  0  0  0  0
M  END
> <PUBCHEM_COMPOUND_CID>
11154925

> <PUBCHEM_CONFORMER_RMSD>
1

> <PUBCHEM_CONFORMER_DIVERSEORDER>
1
87
49
76
116
102
44
181
48
188
150
131
66
83
113
106
15
173
164
63
138
158
146
110
82
89
32
12
175
74
53
85
177
122
182
47
19
109
137
142
21
132
80
144
126
23
25
128
38
186
54
86
103
161
108
155
17
39
43
185
59
180
20
88
101
167
73
13
98
156
31
111
41
124
163
18
169
60
130
29
61
84
166
121
92
70
8
62
135
105
81
120
127
171
168
26
136
104
115
65
28
149
37
129
14
119
183
78
72
36
172
67
27
57
152
141
56
153
58
69
11
10
96
179
95
64
77
178
55
46
97
162
16
24
159
174
133
100
165
40
117
123
148
143
99
75
93
140
187
145
5
45
151
112
154
114
33
68
176
35
107
50
118
30
3
71
160
7
184
170
134
125
157
90
2
79
6
4
91
34
22
9
52
42
51
147
139
94

> <PUBCHEM_MMFF94_PARTIAL_CHARGES>
37
1 -0.19
10 -0.99
11 -0.24
12 -0.18
13 0.06
14 0.28
15 0.28
16 -0.3
18 0.69
19 -0.15
2 -0.34
20 0.18
21 0.08
22 -0.33
23 0.19
24 -0.15
25 -0.15
27 -0.15
28 0.18
29 0.33
3 -0.23
30 0.6
31 0.66
36 0.15
4 -0.43
40 0.15
41 0.27
42 0.15
46 0.15
5 -0.57
51 0.06
55 0.36
56 0.36
6 0.51
7 0.03
8 -0.65
9 -0.66

> <PUBCHEM_EFFECTIVE_ROTOR_COUNT>
8

> <PUBCHEM_PHARMACOPHORE_FEATURES>
11
1 10 cation
1 10 donor
1 2 acceptor
1 5 acceptor
1 7 cation
1 7 donor
3 8 9 30 cation
5 6 11 12 13 16 rings
5 7 17 19 22 24 rings
6 17 19 21 23 25 27 rings
6 6 8 9 11 18 30 rings

> <PUBCHEM_HEAVY_ATOM_COUNT>
32

> <PUBCHEM_ATOM_DEF_STEREO_COUNT>
2

> <PUBCHEM_ATOM_UDEF_STEREO_COUNT>
0

> <PUBCHEM_BOND_DEF_STEREO_COUNT>
0

> <PUBCHEM_BOND_UDEF_STEREO_COUNT>
0

> <PUBCHEM_ISOTOPIC_ATOM_COUNT>
0

> <PUBCHEM_COMPONENT_COUNT>
1

> <PUBCHEM_CACTVS_TAUTO_COUNT>
1

> <PUBCHEM_CONFORMER_ID>
00AA35ED00000001

> <PUBCHEM_MMFF94_ENERGY>
75.0843

> <PUBCHEM_FEATURE_SELFOVERLAP>
56.029

> <PUBCHEM_SHAPE_FINGERPRINT>
10 15 17530685411878811788
10299344 5 17060617772428625863
10533779 1 18269268149315055800
10835480 77 18342178895302037754
11007060 377 18412272722538114571
11135609 187 18336825295787359763
11315181 36 18130787850887498241
12236239 1 17987515923715894931
12539765 74 17917158199337980486
12838862 33 18187354433379364989
12925494 130 18197214957201173544
13383668 254 18200890517514989257
14849402 71 18273216417247651409
15684393 108 11527948976653791976
1577012 14 18058453106493463899
15840311 113 18412265030447080628
18365409 1 17845928640946687631
18681886 176 17346024611779674259
20105231 36 12103844566394354253
20554085 129 17168140139737798248
21033648 29 17749385923869611885
21150785 3 17203608177173136822
21521721 280 18411983537662843922
21585482 111 18192432090727837836
21792934 111 17822004281965167820
21859007 373 17603855681276952700
22224240 67 18260830384416333259
23522609 53 17059232357459955467
23569943 247 17483693207920726239
24771293 8 18341337725282493488
335352 9 18335991878948513782
34797466 226 17704077266097666628
3633792 109 18411418384802987529
4093350 32 17632301164258666060
439807 62 9655582920479505704
4403749 210 18187088403174266187
445580 167 17989203742019447997
5104073 3 18259990392541674858
5265222 85 15841258320309679031
5758199 1 18410859824316231147
6201320 215 12468901080819172583
6669772 16 18336832974773186679
9961470 85 18195244648858798320

> <PUBCHEM_SHAPE_MULTIPOLES>
602.89
26.7
2.51
1.31
9.66
0.77
0.19
-17.67
3.98
3.81
-0.8
-1.26
-0.16
1.01

> <PUBCHEM_SHAPE_SELFOVERLAP>
1319.065

> <PUBCHEM_SHAPE_VOLUME>
331.2

> <PUBCHEM_COORDINATE_TYPE>
2
5
10

$$$$
11691242
  -OEChem-11282412143D

 50 53  0     0  0  0  0  0  0999 V2000
    7.2842   -3.1531    0.2565 Br  0  0  0  0  0  0  0  0  0  0  0  0
    2.6096   -1.6669   -0.4196 O   0  0  0  0  0  0  0  0  0  0  0  0
    5.2264    2.4985    0.8409 O   0  0  0  0  0  0  0  0  0  0  0  0
   -3.3402    0.9328   -1.1518 N   0  0  0  0  0  0  0  0  0  0  0  0
    1.2073    0.2092   -0.3700 N   0  0  0  0  0  0  0  0  0  0  0  0
    3.4512    0.4472    0.1208 N   0  0  0  0  0  0  0  0  0  0  0  0
   -7.0440   -0.0678    2.0521 N   0  0  0  0  0  0  0  0  0  0  0  0
   -6.6937   -2.3986    1.7061 N   0  0  0  0  0  0  0  0  0  0  0  0
   -2.4026   -0.0751   -1.1417 C   0  0  0  0  0  0  0  0  0  0  0  0
   -1.1800    0.5044   -0.7954 C   0  0  0  0  0  0  0  0  0  0  0  0
   -4.7439    0.7732   -1.4654 C   0  0  0  0  0  0  0  0  0  0  0  0
   -2.7543    2.1263   -0.8247 C   0  0  0  0  0  0  0  0  0  0  0  0
   -0.0391   -0.3182   -0.7121 C   0  0  0  0  0  0  0  0  0  0  0  0
   -1.4173    1.8936   -0.5985 C   0  0  0  0  0  0  0  0  0  0  0  0
   -2.5417   -1.4414   -1.4098 C   0  0  0  0  0  0  0  0  0  0  0  0
   -5.5522    0.4771   -0.2312 C   0  0  0  0  0  0  0  0  0  0  0  0
   -0.1632   -1.6866   -0.9778 C   0  0  0  0  0  0  0  0  0  0  0  0
   -1.3963   -2.2376   -1.3210 C   0  0  0  0  0  0  0  0  0  0  0  0
   -5.7469   -0.8351    0.1616 C   0  0  0  0  0  0  0  0  0  0  0  0
   -6.0911    1.5212    0.4990 C   0  0  0  0  0  0  0  0  0  0  0  0
    2.4460   -0.4641   -0.2407 C   0  0  0  0  0  0  0  0  0  0  0  0
   -6.4973   -1.0537    1.3057 C   0  0  0  0  0  0  0  0  0  0  0  0
   -6.8261    1.1972    1.6281 C   0  0  0  0  0  0  0  0  0  0  0  0
    4.8228    0.1855    0.3491 C   0  0  0  0  0  0  0  0  0  0  0  0
    5.6757    1.2190    0.7025 C   0  0  0  0  0  0  0  0  0  0  0  0
    5.2847   -1.1142    0.2114 C   0  0  0  0  0  0  0  0  0  0  0  0
    7.0254    0.9463    0.9242 C   0  0  0  0  0  0  0  0  0  0  0  0
    6.6347   -1.3869    0.4332 C   0  0  0  0  0  0  0  0  0  0  0  0
    7.5050   -0.3567    0.7894 C   0  0  0  0  0  0  0  0  0  0  0  0
    5.2570    3.3245   -0.3210 C   0  0  0  0  0  0  0  0  0  0  0  0
   -4.8553   -0.0164   -2.2173 H   0  0  0  0  0  0  0  0  0  0  0  0
   -5.0912    1.6969   -1.9457 H   0  0  0  0  0  0  0  0  0  0  0  0
   -3.3292    3.0416   -0.7798 H   0  0  0  0  0  0  0  0  0  0  0  0
   -0.6925    2.6468   -0.3214 H   0  0  0  0  0  0  0  0  0  0  0  0
   -3.4881   -1.8831   -1.6980 H   0  0  0  0  0  0  0  0  0  0  0  0
    0.6564   -2.3900   -0.9392 H   0  0  0  0  0  0  0  0  0  0  0  0
   -1.4705   -3.3023   -1.5282 H   0  0  0  0  0  0  0  0  0  0  0  0
    1.2260    1.2095   -0.1904 H   0  0  0  0  0  0  0  0  0  0  0  0
   -5.3455   -1.6658   -0.4064 H   0  0  0  0  0  0  0  0  0  0  0  0
   -5.9525    2.5574    0.2117 H   0  0  0  0  0  0  0  0  0  0  0  0
   -7.2732    1.9729    2.2411 H   0  0  0  0  0  0  0  0  0  0  0  0
    3.1675    1.4162    0.2406 H   0  0  0  0  0  0  0  0  0  0  0  0
    4.6688   -1.9574   -0.0604 H   0  0  0  0  0  0  0  0  0  0  0  0
    7.7091    1.7434    1.2033 H   0  0  0  0  0  0  0  0  0  0  0  0
   -6.6865   -3.1192    0.9948 H   0  0  0  0  0  0  0  0  0  0  0  0
   -7.2475   -2.5534    2.5395 H   0  0  0  0  0  0  0  0  0  0  0  0
    8.5594   -0.5524    0.9666 H   0  0  0  0  0  0  0  0  0  0  0  0
    6.2886    3.4750   -0.6545 H   0  0  0  0  0  0  0  0  0  0  0  0
    4.8285    4.2964   -0.0616 H   0  0  0  0  0  0  0  0  0  0  0  0
    4.6629    2.8851   -1.1285 H   0  0  0  0  0  0  0  0  0  0  0  0
  1 28  1  0  0  0  0
  2 21  2  0  0  0  0
  3 25  1  0  0  0  0
  3 30  1  0  0  0  0
  4  9  1  0  0  0  0
  4 11  1  0  0  0  0
  4 12  1  0  0  0  0
  5 13  1  0  0  0  0
  5 21  1  0  0  0  0
  5 38  1  0  0  0  0
  6 21  1  0  0  0  0
  6 24  1  0  0  0  0
  6 42  1  0  0  0  0
  7 22  2  0  0  0  0
  7 23  1  0  0  0  0
  8 22  1  0  0  0  0
  8 45  1  0  0  0  0
  8 46  1  0  0  0  0
  9 10  1  0  0  0  0
  9 15  2  0  0  0  0
 10 13  2  0  0  0  0
 10 14  1  0  0  0  0
 11 16  1  0  0  0  0
 11 31  1  0  0  0  0
 11 32  1  0  0  0  0
 12 14  2  0  0  0  0
 12 33  1  0  0  0  0
 13 17  1  0  0  0  0
 14 34  1  0  0  0  0
 15 18  1  0  0  0  0
 15 35  1  0  0  0  0
 16 19  2  0  0  0  0
 16 20  1  0  0  0  0
 17 18  2  0  0  0  0
 17 36  1  0  0  0  0
 18 37  1  0  0  0  0
 19 22  1  0  0  0  0
 19 39  1  0  0  0  0
 20 23  2  0  0  0  0
 20 40  1  0  0  0  0
 23 41  1  0  0  0  0
 24 25  2  0  0  0  0
 24 26  1  0  0  0  0
 25 27  1  0  0  0  0
 26 28  2  0  0  0  0
 26 43  1  0  0  0  0
 27 29  2  0  0  0  0
 27 44  1  0  0  0  0
 28 29  1  0  0  0  0
 29 47  1  0  0  0  0
 30 48  1  0  0  0  0
 30 49  1  0  0  0  0
 30 50  1  0  0  0  0
M  END
> <PUBCHEM_COMPOUND_CID>
11691242

> <PUBCHEM_CONFORMER_RMSD>
0.8

> <PUBCHEM_CONFORMER_DIVERSEORDER>
1
127
145
63
167
223
231
13
129
70
213
236
208
71
206
141
172
132
216
24
234
155
128
142
54
214
180
186
123
85
220
178
235
89
151
68
217
215
140
222
108
98
230
162
12
173
42
221
83
212
239
104
179
192
237
50
78
154
87
224
43
168
20
193
100
90
218
187
184
79
209
25
226
143
80
48
205
199
159
169
139
189
5
60
233
163
15
219
138
181
190
158
23
211
130
161
207
126
227
74
29
46
153
134
95
232
149
185
91
55
11
97
164
238
160
99
28
116
202
62
102
225
201
183
27
119
81
228
45
182
72
166
73
115
165
26
101
229
40
96
146
150
107
86
117
49
36
103
204
69
56
9
84
191
196
110
18
94
170
37
51
198
203
47
105
31
156
188
174
67
200
136
53
14
4
176
152
30
195
121
114
59
210
58
113
82
33
10
61
148
75
135
57
171
124
157
34
21
39
38
197
19
144
44
65
22
120
177
112
64
7
137
41
147
16
88
2
133
92
194
8
77
125
111
118
32
106
66
175
17
52
109
131
122
3
6
35
76
93

> <PUBCHEM_MMFF94_PARTIAL_CHARGES>
44
1 -0.11
11 0.4
12 -0.3
13 0.12
14 -0.15
15 -0.15
16 -0.14
17 -0.15
18 -0.15
19 -0.15
2 -0.57
20 -0.15
21 0.69
22 0.41
23 0.16
24 0.12
25 0.08
26 -0.15
27 -0.15
28 0.11
29 -0.15
3 -0.36
30 0.28
33 0.15
34 0.15
35 0.15
36 0.15
37 0.15
38 0.37
39 0.15
4 0.05
40 0.15
41 0.15
42 0.37
43 0.15
44 0.15
45 0.4
46 0.4
47 0.15
5 -0.55
6 -0.55
7 -0.62
8 -0.9
9 -0.15

> <PUBCHEM_EFFECTIVE_ROTOR_COUNT>
7

> <PUBCHEM_PHARMACOPHORE_FEATURES>
12
1 1 hydrophobe
1 2 acceptor
1 3 acceptor
1 4 cation
1 5 donor
1 6 donor
1 8 donor
3 7 8 22 cation
5 4 9 10 12 14 rings
6 24 25 26 27 28 29 rings
6 7 16 19 20 22 23 rings
6 9 10 13 15 17 18 rings

> <PUBCHEM_HEAVY_ATOM_COUNT>
30

> <PUBCHEM_ATOM_DEF_STEREO_COUNT>
0

> <PUBCHEM_ATOM_UDEF_STEREO_COUNT>
0

> <PUBCHEM_BOND_DEF_STEREO_COUNT>
0

> <PUBCHEM_BOND_UDEF_STEREO_COUNT>
0

> <PUBCHEM_ISOTOPIC_ATOM_COUNT>
0

> <PUBCHEM_COMPONENT_COUNT>
1

> <PUBCHEM_CACTVS_TAUTO_COUNT>
6

> <PUBCHEM_CONFORMER_ID>
00B264EA00000001

> <PUBCHEM_MMFF94_ENERGY>
101.7039

> <PUBCHEM_FEATURE_SELFOVERLAP>
61.036

> <PUBCHEM_SHAPE_FINGERPRINT>
10 15 18411419518193707999
10533779 1 15624832527112168489
10906281 52 17632584880475062669
11181472 205 15195297413220780586
11456790 92 17917706882180035130
11475781 23 13901908908112698364
11761917 87 18268156353595172090
12758862 56 18192417586453870594
13690498 29 9942933670149660269
13782708 43 15140674791279059965
13914758 101 12895355486538544286
14341114 176 18411692176457277956
14344974 204 18188218722824587099
14444916 359 18341337704034816190
14849402 71 18129662044516122449
14856354 85 16773507859140503149
15183329 4 14333407839480465337
1577012 14 17704065214345600292
16110190 28 18412543245153060757
16994733 274 15123792855660995667
19611394 137 18260553341893182801
20105231 36 18408891703046191558
21223535 225 14620506779691864715
21756936 100 16988841679738631615
21781055 127 16773529789486121882
21792934 111 18260829276821550333
21792965 106 14260245142279630379
23081809 10 17703215304378260780
23389318 12 12468648226855363234
23522609 53 17988372588280311129
23559900 14 18200012024708578534
23576562 1 11095295510288543683
255183 313 18201721786522637919
2747138 104 17967816033288401140
3178227 256 18412261706348374706
3383291 50 17168150069981917827
397830 11 17968095377681582717
4093350 32 15769498634511060142
504579 68 8646485271984527730
5104073 3 18341317998824341658
5969126 39 12179839498834184511
68570916 9 18341331213953284751
9953998 17 18333454223428164681
999808 66 18260548909555361955

> <PUBCHEM_SHAPE_MULTIPOLES>
586.68
24.7
2.91
1.47
8.92
0.21
0.3
-2.53
13.73
3.72
-0.03
-2.91
-0.24
0.92

> <PUBCHEM_SHAPE_SELFOVERLAP>
1272.946

> <PUBCHEM_SHAPE_VOLUME>
328.3

> <PUBCHEM_COORDINATE_TYPE>
2
5
10

$$$$
24856436
  -OEChem-11282412143D

 69 73  0     0  0  0  0  0  0999 V2000
    2.3071    5.0300   -1.7277 O   0  0  0  0  0  0  0  0  0  0  0  0
    5.3850   -2.8505   -0.2607 O   0  0  0  0  0  0  0  0  0  0  0  0
   -5.3956    0.0048    0.0805 N   0  0  0  0  0  0  0  0  0  0  0  0
   -7.6562    1.6193    0.7460 N   0  0  0  0  0  0  0  0  0  0  0  0
    2.8600   -0.4946    0.2936 N   0  0  0  0  0  0  0  0  0  0  0  0
    4.2291   -0.8463    0.2321 N   0  0  0  0  0  0  0  0  0  0  0  0
   -0.9443   -3.2940   -0.7308 N   0  0  0  0  0  0  0  0  0  0  0  0
    0.8141   -1.8394   -0.1946 N   0  0  0  0  0  0  0  0  0  0  0  0
    3.0310    1.7495   -0.4740 N   0  0  0  0  0  0  0  0  0  0  0  0
    1.2415   -4.1332   -0.8868 N   0  0  0  0  0  0  0  0  0  0  0  0
   -5.2044    1.3890    0.5241 C   0  0  0  0  0  0  0  0  0  0  0  0
   -6.6551   -0.6267    0.4942 C   0  0  0  0  0  0  0  0  0  0  0  0
   -6.4396    2.2327    0.1997 C   0  0  0  0  0  0  0  0  0  0  0  0
   -7.8431    0.2819    0.1697 C   0  0  0  0  0  0  0  0  0  0  0  0
   -4.2829   -0.8189   -0.1229 C   0  0  0  0  0  0  0  0  0  0  0  0
   -8.8211    2.4612    0.4763 C   0  0  0  0  0  0  0  0  0  0  0  0
   -4.3330   -1.8358   -1.0765 C   0  0  0  0  0  0  0  0  0  0  0  0
   -3.1242   -0.6244    0.6290 C   0  0  0  0  0  0  0  0  0  0  0  0
    2.1405   -1.6747   -0.0673 C   0  0  0  0  0  0  0  0  0  0  0  0
   -2.0658   -2.4634   -0.5261 C   0  0  0  0  0  0  0  0  0  0  0  0
   -3.2245   -2.6581   -1.2780 C   0  0  0  0  0  0  0  0  0  0  0  0
   -2.0158   -1.4466    0.4275 C   0  0  0  0  0  0  0  0  0  0  0  0
    3.0312   -2.6906   -0.3603 C   0  0  0  0  0  0  0  0  0  0  0  0
    3.2436    4.0216   -1.2840 C   0  0  0  0  0  0  0  0  0  0  0  0
    2.4044    0.8415    0.3072 C   0  0  0  0  0  0  0  0  0  0  0  0
    4.3776   -2.1751   -0.1549 C   0  0  0  0  0  0  0  0  0  0  0  0
    2.5559    3.0142   -0.4239 C   0  0  0  0  0  0  0  0  0  0  0  0
    5.2339   -0.1045    0.9613 C   0  0  0  0  0  0  0  0  0  0  0  0
    0.4407   -3.0769   -0.5962 C   0  0  0  0  0  0  0  0  0  0  0  0
    2.5641   -3.9114   -0.7613 C   0  0  0  0  0  0  0  0  0  0  0  0
    1.3309    1.1367    1.1319 C   0  0  0  0  0  0  0  0  0  0  0  0
    3.8601    3.4532   -2.5873 C   0  0  0  0  0  0  0  0  0  0  0  0
    4.3463    4.7571   -0.4903 C   0  0  0  0  0  0  0  0  0  0  0  0
    1.4893    3.4113    0.3663 C   0  0  0  0  0  0  0  0  0  0  0  0
    0.8706    2.4485    1.1561 C   0  0  0  0  0  0  0  0  0  0  0  0
    5.2327   -0.5517    2.3852 C   0  0  0  0  0  0  0  0  0  0  0  0
    5.0159    0.2643    3.4229 C   0  0  0  0  0  0  0  0  0  0  0  0
   -5.0176    1.4124    1.6055 H   0  0  0  0  0  0  0  0  0  0  0  0
   -4.3418    1.8427    0.0202 H   0  0  0  0  0  0  0  0  0  0  0  0
   -6.6187   -0.8298    1.5724 H   0  0  0  0  0  0  0  0  0  0  0  0
   -6.8139   -1.5871   -0.0093 H   0  0  0  0  0  0  0  0  0  0  0  0
   -6.2959    3.2308    0.6312 H   0  0  0  0  0  0  0  0  0  0  0  0
   -6.5235    2.3568   -0.8886 H   0  0  0  0  0  0  0  0  0  0  0  0
   -7.9716    0.3430   -0.9195 H   0  0  0  0  0  0  0  0  0  0  0  0
   -8.7494   -0.1796    0.5801 H   0  0  0  0  0  0  0  0  0  0  0  0
   -8.6971    3.4475    0.9373 H   0  0  0  0  0  0  0  0  0  0  0  0
   -8.9933    2.6014   -0.5970 H   0  0  0  0  0  0  0  0  0  0  0  0
   -9.7232    2.0210    0.9156 H   0  0  0  0  0  0  0  0  0  0  0  0
   -5.2213   -1.9943   -1.6826 H   0  0  0  0  0  0  0  0  0  0  0  0
   -3.0584    0.1418    1.3963 H   0  0  0  0  0  0  0  0  0  0  0  0
   -3.2746   -3.4443   -2.0271 H   0  0  0  0  0  0  0  0  0  0  0  0
   -1.1545   -1.2912    1.0684 H   0  0  0  0  0  0  0  0  0  0  0  0
    5.0818    0.9722    0.8533 H   0  0  0  0  0  0  0  0  0  0  0  0
    6.2110   -0.3441    0.5261 H   0  0  0  0  0  0  0  0  0  0  0  0
   -1.1590   -4.1879   -1.1626 H   0  0  0  0  0  0  0  0  0  0  0  0
    3.2156   -4.7425   -0.9978 H   0  0  0  0  0  0  0  0  0  0  0  0
    0.8561    0.3861    1.7551 H   0  0  0  0  0  0  0  0  0  0  0  0
    4.2880    4.2518   -3.2043 H   0  0  0  0  0  0  0  0  0  0  0  0
    4.6474    2.7208   -2.3783 H   0  0  0  0  0  0  0  0  0  0  0  0
    3.0894    2.9645   -3.1951 H   0  0  0  0  0  0  0  0  0  0  0  0
    3.9232    5.2807    0.3752 H   0  0  0  0  0  0  0  0  0  0  0  0
    5.1111    4.0611   -0.1284 H   0  0  0  0  0  0  0  0  0  0  0  0
    4.8343    5.5209   -1.1066 H   0  0  0  0  0  0  0  0  0  0  0  0
    1.1344    4.4356    0.3978 H   0  0  0  0  0  0  0  0  0  0  0  0
    0.0342    2.7206    1.7929 H   0  0  0  0  0  0  0  0  0  0  0  0
    5.4416   -1.5990    2.5897 H   0  0  0  0  0  0  0  0  0  0  0  0
    2.8010    5.7064   -2.2221 H   0  0  0  0  0  0  0  0  0  0  0  0
    4.8117    1.3197    3.2804 H   0  0  0  0  0  0  0  0  0  0  0  0
    5.0380   -0.1185    4.4373 H   0  0  0  0  0  0  0  0  0  0  0  0
  1 24  1  0  0  0  0
  1 67  1  0  0  0  0
  2 26  2  0  0  0  0
  3 11  1  0  0  0  0
  3 12  1  0  0  0  0
  3 15  1  0  0  0  0
  4 13  1  0  0  0  0
  4 14  1  0  0  0  0
  4 16  1  0  0  0  0
  5  6  1  0  0  0  0
  5 19  1  0  0  0  0
  5 25  1  0  0  0  0
  6 26  1  0  0  0  0
  6 28  1  0  0  0  0
  7 20  1  0  0  0  0
  7 29  1  0  0  0  0
  7 55  1  0  0  0  0
  8 19  2  0  0  0  0
  8 29  1  0  0  0  0
  9 25  1  0  0  0  0
  9 27  2  0  0  0  0
 10 29  2  0  0  0  0
 10 30  1  0  0  0  0
 11 13  1  0  0  0  0
 11 38  1  0  0  0  0
 11 39  1  0  0  0  0
 12 14  1  0  0  0  0
 12 40  1  0  0  0  0
 12 41  1  0  0  0  0
 13 42  1  0  0  0  0
 13 43  1  0  0  0  0
 14 44  1  0  0  0  0
 14 45  1  0  0  0  0
 15 17  2  0  0  0  0
 15 18  1  0  0  0  0
 16 46  1  0  0  0  0
 16 47  1  0  0  0  0
 16 48  1  0  0  0  0
 17 21  1  0  0  0  0
 17 49  1  0  0  0  0
 18 22  2  0  0  0  0
 18 50  1  0  0  0  0
 19 23  1  0  0  0  0
 20 21  2  0  0  0  0
 20 22  1  0  0  0  0
 21 51  1  0  0  0  0
 22 52  1  0  0  0  0
 23 26  1  0  0  0  0
 23 30  2  0  0  0  0
 24 27  1  0  0  0  0
 24 32  1  0  0  0  0
 24 33  1  0  0  0  0
 25 31  2  0  0  0  0
 27 34  1  0  0  0  0
 28 36  1  0  0  0  0
 28 53  1  0  0  0  0
 28 54  1  0  0  0  0
 30 56  1  0  0  0  0
 31 35  1  0  0  0  0
 31 57  1  0  0  0  0
 32 58  1  0  0  0  0
 32 59  1  0  0  0  0
 32 60  1  0  0  0  0
 33 61  1  0  0  0  0
 33 62  1  0  0  0  0
 33 63  1  0  0  0  0
 34 35  2  0  0  0  0
 34 64  1  0  0  0  0
 35 65  1  0  0  0  0
 36 37  2  0  0  0  0
 36 66  1  0  0  0  0
 37 68  1  0  0  0  0
 37 69  1  0  0  0  0
M  END
> <PUBCHEM_COMPOUND_CID>
24856436

> <PUBCHEM_CONFORMER_RMSD>
1

> <PUBCHEM_CONFORMER_DIVERSEORDER>
1
11
26
32
34
31
22
12
41
25
28
33
40
35
36
19
8
27
21
29
13
30
4
15
9
3
5
37
39
6
23
2
17
14
20
38
18
16
24
7
10

> <PUBCHEM_MMFF94_PARTIAL_CHARGES>
48
1 -0.68
10 -0.62
11 0.37
12 0.37
13 0.27
14 0.27
15 0.1
16 0.27
17 -0.15
18 -0.15
19 0.41
2 -0.57
20 0.1
21 -0.15
22 -0.15
23 0.09
24 0.42
25 0.41
26 0.54
27 0.17
28 0.44
29 0.72
3 -0.84
30 0.16
31 -0.15
34 -0.15
35 -0.15
36 -0.29
37 -0.3
4 -0.81
49 0.15
5 -0.22
50 0.15
51 0.15
52 0.15
55 0.4
56 0.15
57 0.15
6 -0.34
64 0.15
65 0.15
66 0.15
67 0.4
68 0.15
69 0.15
7 -0.6
8 -0.62
9 -0.62

> <PUBCHEM_EFFECTIVE_ROTOR_COUNT>
8.2

> <PUBCHEM_PHARMACOPHORE_FEATURES>
15
1 1 acceptor
1 1 donor
1 2 acceptor
1 3 cation
1 37 hydrophobe
1 4 cation
1 7 donor
1 9 acceptor
3 24 32 33 hydrophobe
4 7 8 10 29 cation
5 5 6 19 23 26 rings
6 15 17 18 20 21 22 rings
6 3 4 11 12 13 14 rings
6 8 10 19 23 29 30 rings
6 9 25 27 31 34 35 rings

> <PUBCHEM_HEAVY_ATOM_COUNT>
37

> <PUBCHEM_ATOM_DEF_STEREO_COUNT>
0

> <PUBCHEM_ATOM_UDEF_STEREO_COUNT>
0

> <PUBCHEM_BOND_DEF_STEREO_COUNT>
0

> <PUBCHEM_BOND_UDEF_STEREO_COUNT>
0

> <PUBCHEM_ISOTOPIC_ATOM_COUNT>
0

> <PUBCHEM_COMPONENT_COUNT>
1

> <PUBCHEM_CACTVS_TAUTO_COUNT>
5

> <PUBCHEM_CONFORMER_ID>
017B477400000001

> <PUBCHEM_MMFF94_ENERGY>
141.4627

> <PUBCHEM_FEATURE_SELFOVERLAP>
76.229

> <PUBCHEM_SHAPE_FINGERPRINT>
10074138 170 15306441172200253507
10439779 11 18129084787978255962
10483366 6 18337973263484187244
10675989 125 18410580595154144760
10677394 325 18046942375276317684
10816530 90 18335146410245961204
10974685 15 17264963378224200936
11059048 146 18051699037996625109
11273773 38 18411143549439183964
11297750 10 17767963135363910814
11578080 2 16082230661109664488
11828042 279 18263624304573211039
1200032 147 18115033033570388880
12925494 130 18342734118599244411
13560911 43 18262802835805451961
13944108 23 18338527360523717029
14117953 113 18270966738925627374
14725015 67 18051126991503755962
14790565 3 17978513358319786468
15064981 194 18201170914444286247
15320295 198 18190463749954108477
15439362 3 18266182910558491476
15483637 11 17620196430084494809
16067689 134 18119533387163177580
16087824 20 18340208471132182572
19053607 189 18267860760749554649
19302320 297 18408324371734615225
20642791 178 18339639070027392346
21298829 104 18201431485028937251
21987440 362 17911511318973713120
24771293 8 18129361826892325938
3103668 31 17832713366158431606
338550 245 18413387639923586361
42626532 9 15503748881532431052
4408954 64 17245245441546156546
45266715 3 11959723851191460861
46194498 28 18259987059050830141
513532 50 17703517601304090894
53794403 172 18410017650028051199
550186 83 18116131321691376130
57676310 115 18188507873086866260
57724786 102 18261109733447315325
58902169 19 17916291763760889759
60111433 81 17416946482556281032
6176135 31 18411415107842927153
6371009 1 18125697209907371711

> <PUBCHEM_SHAPE_MULTIPOLES>
709.86
18.53
6.54
1.73
43.04
3.61
-0.76
10.02
-5.33
-7.62
3.97
-3.4
0.98
-3.15

> <PUBCHEM_SHAPE_SELFOVERLAP>
1532.472

> <PUBCHEM_SHAPE_VOLUME>
387.5

> <PUBCHEM_COORDINATE_TYPE>
2
5
10

$$$$
2051
  -OEChem-11282412143D

 36 38  0     0  0  0  0  0  0999 V2000
    5.3867   -0.6973    2.1740 Cl  0  0  0  0  0  0  0  0  0  0  0  0
   -3.3174    2.3387    0.0317 O   0  0  0  0  0  0  0  0  0  0  0  0
   -4.9614    0.1517    0.5175 O   0  0  0  0  0  0  0  0  0  0  0  0
    1.3024    0.3786   -0.7394 N   0  0  0  0  0  0  0  0  0  0  0  0
   -1.2533   -2.7917    0.0003 N   0  0  0  0  0  0  0  0  0  0  0  0
    0.9428   -1.9340   -0.4978 N   0  0  0  0  0  0  0  0  0  0  0  0
   -0.9295   -0.4272   -0.2383 C   0  0  0  0  0  0  0  0  0  0  0  0
   -1.7487   -1.5416    0.0061 C   0  0  0  0  0  0  0  0  0  0  0  0
    0.4142   -0.6958   -0.4845 C   0  0  0  0  0  0  0  0  0  0  0  0
   -1.4585    0.8751   -0.2297 C   0  0  0  0  0  0  0  0  0  0  0  0
   -2.8120    1.0748    0.0235 C   0  0  0  0  0  0  0  0  0  0  0  0
   -3.0995   -1.3127    0.2567 C   0  0  0  0  0  0  0  0  0  0  0  0
   -3.6332   -0.0205    0.2670 C   0  0  0  0  0  0  0  0  0  0  0  0
    2.6738    0.5521   -0.4948 C   0  0  0  0  0  0  0  0  0  0  0  0
    0.0651   -2.9200   -0.2516 C   0  0  0  0  0  0  0  0  0  0  0  0
    3.2812   -0.0838    0.5923 C   0  0  0  0  0  0  0  0  0  0  0  0
    3.4424    1.3615   -1.3370 C   0  0  0  0  0  0  0  0  0  0  0  0
    4.6439    0.0878    0.8348 C   0  0  0  0  0  0  0  0  0  0  0  0
    4.8053    1.5332   -1.0944 C   0  0  0  0  0  0  0  0  0  0  0  0
    5.4060    0.8964   -0.0085 C   0  0  0  0  0  0  0  0  0  0  0  0
   -3.3111    3.0323    1.2785 C   0  0  0  0  0  0  0  0  0  0  0  0
   -5.8392    0.1421   -0.6064 C   0  0  0  0  0  0  0  0  0  0  0  0
   -0.8365    1.7482   -0.4097 H   0  0  0  0  0  0  0  0  0  0  0  0
   -3.7577   -2.1585    0.4504 H   0  0  0  0  0  0  0  0  0  0  0  0
    0.9231    1.0570   -1.3943 H   0  0  0  0  0  0  0  0  0  0  0  0
    0.4581   -3.9293   -0.2545 H   0  0  0  0  0  0  0  0  0  0  0  0
    2.6942   -0.7056    1.2647 H   0  0  0  0  0  0  0  0  0  0  0  0
    2.9882    1.8635   -2.1878 H   0  0  0  0  0  0  0  0  0  0  0  0
    5.3986    2.1625   -1.7512 H   0  0  0  0  0  0  0  0  0  0  0  0
    6.4690    1.0393    0.1682 H   0  0  0  0  0  0  0  0  0  0  0  0
   -3.9104    2.4958    2.0209 H   0  0  0  0  0  0  0  0  0  0  0  0
   -3.7508    4.0211    1.1224 H   0  0  0  0  0  0  0  0  0  0  0  0
   -2.2863    3.1579    1.6419 H   0  0  0  0  0  0  0  0  0  0  0  0
   -5.5869    0.9507   -1.2996 H   0  0  0  0  0  0  0  0  0  0  0  0
   -6.8596    0.2968   -0.2454 H   0  0  0  0  0  0  0  0  0  0  0  0
   -5.7925   -0.8227   -1.1212 H   0  0  0  0  0  0  0  0  0  0  0  0
  1 18  1  0  0  0  0
  2 11  1  0  0  0  0
  2 21  1  0  0  0  0
  3 13  1  0  0  0  0
  3 22  1  0  0  0  0
  4  9  1  0  0  0  0
  4 14  1  0  0  0  0
  4 25  1  0  0  0  0
  5  8  1  0  0  0  0
  5 15  2  0  0  0  0
  6  9  2  0  0  0  0
  6 15  1  0  0  0  0
  7  8  1  0  0  0  0
  7  9  1  0  0  0  0
  7 10  2  0  0  0  0
  8 12  2  0  0  0  0
 10 11  1  0  0  0  0
 10 23  1  0  0  0  0
 11 13  2  0  0  0  0
 12 13  1  0  0  0  0
 12 24  1  0  0  0  0
 14 16  2  0  0  0  0
 14 17  1  0  0  0  0
 15 26  1  0  0  0  0
 16 18  1  0  0  0  0
 16 27  1  0  0  0  0
 17 19  2  0  0  0  0
 17 28  1  0  0  0  0
 18 20  2  0  0  0  0
 19 20  1  0  0  0  0
 19 29  1  0  0  0  0
 20 30  1  0  0  0  0
 21 31  1  0  0  0  0
 21 32  1  0  0  0  0
 21 33  1  0  0  0  0
 22 34  1  0  0  0  0
 22 35  1  0  0  0  0
 22 36  1  0  0  0  0
M  END
> <PUBCHEM_COMPOUND_CID>
2051

> <PUBCHEM_CONFORMER_RMSD>
0.6

> <PUBCHEM_CONFORMER_DIVERSEORDER>
2
57
35
23
14
42
27
47
38
19
10
58
9
36
41
33
32
48
15
24
46
53
4
45
37
39
16
43
13
44
55
20
1
54
40
25
3
34
56
12
17
18
31
29
51
50
8
5
52
22
30
49
21
26
28
11
7
6

> <PUBCHEM_MMFF94_PARTIAL_CHARGES>
29
1 -0.18
10 -0.15
11 0.08
12 -0.15
13 0.08
14 0.1
15 0.47
16 -0.15
17 -0.15
18 0.18
19 -0.15
2 -0.36
20 -0.15
21 0.28
22 0.28
23 0.15
24 0.15
25 0.4
26 0.15
27 0.15
28 0.15
29 0.15
3 -0.36
30 0.15
4 -0.6
5 -0.62
6 -0.62
8 0.31
9 0.41

> <PUBCHEM_EFFECTIVE_ROTOR_COUNT>
4

> <PUBCHEM_PHARMACOPHORE_FEATURES>
8
1 2 acceptor
1 3 acceptor
1 4 donor
3 4 6 9 cation
3 5 6 15 cation
6 14 16 17 18 19 20 rings
6 5 6 7 8 9 15 rings
6 7 8 10 11 12 13 rings

> <PUBCHEM_HEAVY_ATOM_COUNT>
22

> <PUBCHEM_ATOM_DEF_STEREO_COUNT>
0

> <PUBCHEM_ATOM_UDEF_STEREO_COUNT>
0

> <PUBCHEM_BOND_DEF_STEREO_COUNT>
0

> <PUBCHEM_BOND_UDEF_STEREO_COUNT>
0

> <PUBCHEM_ISOTOPIC_ATOM_COUNT>
0

> <PUBCHEM_COMPONENT_COUNT>
1

> <PUBCHEM_CACTVS_TAUTO_COUNT>
3

> <PUBCHEM_CONFORMER_ID>
0000080300000002

> <PUBCHEM_MMFF94_ENERGY>
98.5242

> <PUBCHEM_FEATURE_SELFOVERLAP>
40.772

> <PUBCHEM_SHAPE_FINGERPRINT>
10411042 1 17547295961368065975
10670039 82 18339095799983614324
10692045 39 18058159524041622690
11552529 35 17388269098001397314
11725454 13 17203313521163457594
12107183 9 17899687965169901960
12236239 1 17894909658906517704
12390115 104 18129400232020537633
12403260 363 18411975888468540293
12596602 18 17530965825460647753
12788726 201 17901956562479998826
13140716 1 18123479533988031083
13533116 47 17312816074596279008
13914758 101 16950832614838444837
14420673 8 18190458265101899850
14466204 15 18341889650260445376
14767858 380 18341882022946614967
15042514 8 18193564582559770403
15256400 18 18338516331538115926
173720 79 18408314493093816135
17818456 19 18409448073050835592
1813 80 16588306030464015374
21033648 29 17275383201329261544
21065198 48 18113898299442838848
212916 134 18272641351454666562
23366157 5 18044384820239841327
23402539 116 18340762745383626207
23559900 14 18200890547305056798
23569917 315 18410012139369986071
314173 85 12107786293814411390
341906 21 18273213106228337648
469060 322 18198927897348319889
474229 33 18410857681164571047
495365 180 17346882230876090382
5104073 3 18193285096437073171
5486654 2 18342460365878253711
56633871 153 17972574642831999962
6371009 1 18411130342584066909
7064713 232 18410570652721442928
7097593 13 18114169853266953754
9981440 41 18409170978856715811

> <PUBCHEM_SHAPE_MULTIPOLES>
427.94
12.41
2.67
1.21
4.41
0.4
-0.42
-4.89
-2.46
-1.97
-0.21
1.63
-0.27
-1.78

> <PUBCHEM_SHAPE_SELFOVERLAP>
924.992

> <PUBCHEM_SHAPE_VOLUME>
236.7

> <PUBCHEM_COORDINATE_TYPE>
2
5
10

$$$$
5328768
  -OEChem-11282412143D

 23 23  0     0  0  0  0  0  0999 V2000
   -3.2324    0.2890   -1.9824 O   0  0  0  0  0  0  0  0  0  0  0  0
   -4.4241    0.2263    0.5278 O   0  0  0  0  0  0  0  0  0  0  0  0
    3.7018   -1.6911   -0.2960 O   0  0  0  0  0  0  0  0  0  0  0  0
    4.4373    0.4656   -0.1256 N   0  0  0  0  0  0  0  0  0  0  0  0
    1.5864    2.5519    0.3257 N   0  0  0  0  0  0  0  0  0  0  0  0
   -0.3747   -0.5946    0.1191 C   0  0  0  0  0  0  0  0  0  0  0  0
   -1.1371   -0.2867   -1.0078 C   0  0  0  0  0  0  0  0  0  0  0  0
   -0.9729   -0.6255    1.3788 C   0  0  0  0  0  0  0  0  0  0  0  0
   -2.4978   -0.0098   -0.8747 C   0  0  0  0  0  0  0  0  0  0  0  0
   -3.0959   -0.0408    0.3852 C   0  0  0  0  0  0  0  0  0  0  0  0
   -2.3334   -0.3486    1.5119 C   0  0  0  0  0  0  0  0  0  0  0  0
    1.0442   -0.8825   -0.0191 C   0  0  0  0  0  0  0  0  0  0  0  0
    2.0524    0.0248    0.0184 C   0  0  0  0  0  0  0  0  0  0  0  0
    3.4526   -0.4963   -0.1497 C   0  0  0  0  0  0  0  0  0  0  0  0
    1.7937    1.4183    0.1885 C   0  0  0  0  0  0  0  0  0  0  0  0
   -0.6794   -0.2607   -1.9944 H   0  0  0  0  0  0  0  0  0  0  0  0
   -0.3920   -0.8641    2.2666 H   0  0  0  0  0  0  0  0  0  0  0  0
   -2.7867   -0.3764    2.4992 H   0  0  0  0  0  0  0  0  0  0  0  0
    1.2577   -1.9405   -0.1566 H   0  0  0  0  0  0  0  0  0  0  0  0
   -4.1508    0.4521   -1.7055 H   0  0  0  0  0  0  0  0  0  0  0  0
   -4.6617    0.1580    1.4685 H   0  0  0  0  0  0  0  0  0  0  0  0
    4.2573    1.4568   -0.0058 H   0  0  0  0  0  0  0  0  0  0  0  0
    5.4120    0.2032   -0.2313 H   0  0  0  0  0  0  0  0  0  0  0  0
  1  9  1  0  0  0  0
  1 20  1  0  0  0  0
  2 10  1  0  0  0  0
  2 21  1  0  0  0  0
  3 14  2  0  0  0  0
  4 14  1  0  0  0  0
  4 22  1  0  0  0  0
  4 23  1  0  0  0  0
  5 15  3  0  0  0  0
  6  7  2  0  0  0  0
  6  8  1  0  0  0  0
  6 12  1  0  0  0  0
  7  9  1  0  0  0  0
  7 16  1  0  0  0  0
  8 11  2  0  0  0  0
  8 17  1  0  0  0  0
  9 10  2  0  0  0  0
 10 11  1  0  0  0  0
 11 18  1  0  0  0  0
 12 13  2  0  0  0  0
 12 19  1  0  0  0  0
 13 14  1  0  0  0  0
 13 15  1  0  0  0  0
M  END
> <PUBCHEM_COMPOUND_CID>
5328768

> <PUBCHEM_CONFORMER_RMSD>
0.6

> <PUBCHEM_CONFORMER_DIVERSEORDER>
1
11
6
4
8
9
2
12
5
3
10
7

> <PUBCHEM_MMFF94_PARTIAL_CHARGES>
23
1 -0.53
10 0.08
11 -0.15
12 -0.18
13 0.08
14 0.62
15 0.49
16 0.15
17 0.15
18 0.15
19 0.15
2 -0.53
20 0.45
21 0.45
22 0.37
23 0.37
3 -0.57
4 -0.8
5 -0.56
6 0.03
7 -0.15
8 -0.15
9 0.08

> <PUBCHEM_EFFECTIVE_ROTOR_COUNT>
2

> <PUBCHEM_PHARMACOPHORE_FEATURES>
6
1 1 donor
1 2 donor
1 3 acceptor
1 4 donor
1 5 acceptor
6 6 7 8 9 10 11 rings

> <PUBCHEM_HEAVY_ATOM_COUNT>
15

> <PUBCHEM_ATOM_DEF_STEREO_COUNT>
0

> <PUBCHEM_ATOM_UDEF_STEREO_COUNT>
0

> <PUBCHEM_BOND_DEF_STEREO_COUNT>
1

> <PUBCHEM_BOND_UDEF_STEREO_COUNT>
0

> <PUBCHEM_ISOTOPIC_ATOM_COUNT>
0

> <PUBCHEM_COMPONENT_COUNT>
1

> <PUBCHEM_CACTVS_TAUTO_COUNT>
20

> <PUBCHEM_CONFORMER_ID>
00514F8000000001

> <PUBCHEM_MMFF94_ENERGY>
37.8231

> <PUBCHEM_FEATURE_SELFOVERLAP>
30.45

> <PUBCHEM_SHAPE_FINGERPRINT>
12186901 62 16370726989503923799
12236239 1 17489872630797775194
124424 183 18113611275189137754
12932764 1 17822282513698400619
13134695 92 18413668007168246556
14993402 34 17988928877213476022
15653759 3 17458346359490271488
16945 1 18337658755069847035
18186145 218 18409719682044523299
19049666 15 17822847572411958458
200 152 18201436999972816219
20279233 1 17967817150116931258
20510252 161 16877941603576041973
20645476 183 17560799944373552911
20645477 70 18337393738856824710
21119208 17 17489872626502691001
21639500 275 18270113642609563612
23175994 123 18261965063441784420
232386 152 15913322524281188804
23402539 116 14117514290639580113
23559900 14 17458902640203708802
3286 77 18335989756711838571
74978 22 18271809085350069974
77492 1 17489872643651002594
81228 2 15952415316868403115

> <PUBCHEM_SHAPE_MULTIPOLES>
281.12
7.33
1.41
1.27
1.63
0.73
-0.16
-0.12
-0.63
1.4
0.21
-1.37
-0.01
0.68

> <PUBCHEM_SHAPE_SELFOVERLAP>
593.919

> <PUBCHEM_SHAPE_VOLUME>
155.1

> <PUBCHEM_COORDINATE_TYPE>
2
5
10

$$$$
10297043
  -OEChem-11282412143D

 65 69  0     1  0  0  0  0  0999 V2000
   -5.9214   -0.2084   -0.9132 N   0  0  0  0  0  0  0  0  0  0  0  0
   -7.8683    1.5455    0.3083 N   0  0  0  0  0  0  0  0  0  0  0  0
    1.0111   -2.5772    0.3198 N   0  0  0  0  0  0  0  0  0  0  0  0
    3.8957    1.0349    0.9495 N   0  0  0  0  0  0  0  0  0  0  0  0
    3.2953   -3.1497    0.8380 N   0  0  0  0  0  0  0  0  0  0  0  0
    4.7173   -1.1977    1.1476 N   0  0  0  0  0  0  0  0  0  0  0  0
   -7.3336   -0.2412   -1.3127 C   0  0  0  0  0  0  0  0  0  0  0  0
   -5.7942    0.2150    0.4867 C   0  0  0  0  0  0  0  0  0  0  0  0
   -7.9957    1.1231   -1.0919 C   0  0  0  0  0  0  0  0  0  0  0  0
   -6.4557    1.5798    0.7062 C   0  0  0  0  0  0  0  0  0  0  0  0
   -5.2926   -1.5114   -1.1207 C   0  0  0  0  0  0  0  0  0  0  0  0
   -8.4984    2.8476    0.5171 C   0  0  0  0  0  0  0  0  0  0  0  0
   -3.8288   -1.4884   -0.7875 C   0  0  0  0  0  0  0  0  0  0  0  0
   -8.4653    3.2448    1.9832 C   0  0  0  0  0  0  0  0  0  0  0  0
   -3.2791   -2.5197   -0.0354 C   0  0  0  0  0  0  0  0  0  0  0  0
   -3.0386   -0.4362   -1.2343 C   0  0  0  0  0  0  0  0  0  0  0  0
   -1.1192   -1.4459   -0.1701 C   0  0  0  0  0  0  0  0  0  0  0  0
   -1.9193   -2.4984    0.2745 C   0  0  0  0  0  0  0  0  0  0  0  0
   -1.6787   -0.4147   -0.9245 C   0  0  0  0  0  0  0  0  0  0  0  0
    0.2870   -1.4245    0.1501 C   0  0  0  0  0  0  0  0  0  0  0  0
    2.4233   -0.8770    0.6287 C   0  0  0  0  0  0  0  0  0  0  0  0
    1.1374   -0.3547    0.3362 C   0  0  0  0  0  0  0  0  0  0  0  0
    2.3116   -2.2619    0.6112 C   0  0  0  0  0  0  0  0  0  0  0  0
    5.1701    1.6236    1.2334 C   0  0  1  0  0  0  0  0  0  0  0  0
    3.6852   -0.3553    0.9101 C   0  0  0  0  0  0  0  0  0  0  0  0
    6.0528    1.5796    0.0046 C   0  0  0  0  0  0  0  0  0  0  0  0
    4.9600    3.0380    1.7696 C   0  0  0  0  0  0  0  0  0  0  0  0
    4.4618   -2.5246    1.0975 C   0  0  0  0  0  0  0  0  0  0  0  0
    5.4727    1.6818   -1.2478 C   0  0  0  0  0  0  0  0  0  0  0  0
    7.4206    1.4376    0.1603 C   0  0  0  0  0  0  0  0  0  0  0  0
    6.2862    1.6408   -2.3803 C   0  0  0  0  0  0  0  0  0  0  0  0
    8.2341    1.3967   -0.9720 C   0  0  0  0  0  0  0  0  0  0  0  0
    7.6667    1.4983   -2.2423 C   0  0  0  0  0  0  0  0  0  0  0  0
   -7.4118   -0.4935   -2.3772 H   0  0  0  0  0  0  0  0  0  0  0  0
   -7.8820   -1.0113   -0.7532 H   0  0  0  0  0  0  0  0  0  0  0  0
   -4.7482    0.3224    0.7927 H   0  0  0  0  0  0  0  0  0  0  0  0
   -6.2512   -0.5244    1.1593 H   0  0  0  0  0  0  0  0  0  0  0  0
   -7.5469    1.8645   -1.7671 H   0  0  0  0  0  0  0  0  0  0  0  0
   -9.0560    1.0379   -1.3593 H   0  0  0  0  0  0  0  0  0  0  0  0
   -6.3500    1.8031    1.7729 H   0  0  0  0  0  0  0  0  0  0  0  0
   -5.9072    2.3519    0.1496 H   0  0  0  0  0  0  0  0  0  0  0  0
   -5.3818   -1.8064   -2.1744 H   0  0  0  0  0  0  0  0  0  0  0  0
   -5.8069   -2.2823   -0.5309 H   0  0  0  0  0  0  0  0  0  0  0  0
   -9.5504    2.7903    0.2114 H   0  0  0  0  0  0  0  0  0  0  0  0
   -8.0274    3.6311   -0.0898 H   0  0  0  0  0  0  0  0  0  0  0  0
   -8.8124    2.4326    2.6310 H   0  0  0  0  0  0  0  0  0  0  0  0
   -7.4688    3.5575    2.3095 H   0  0  0  0  0  0  0  0  0  0  0  0
   -9.1312    4.0997    2.1457 H   0  0  0  0  0  0  0  0  0  0  0  0
   -3.8917   -3.3441    0.3187 H   0  0  0  0  0  0  0  0  0  0  0  0
   -3.4507    0.3690   -1.8363 H   0  0  0  0  0  0  0  0  0  0  0  0
   -1.5182   -3.3107    0.8754 H   0  0  0  0  0  0  0  0  0  0  0  0
   -1.0766    0.4121   -1.2930 H   0  0  0  0  0  0  0  0  0  0  0  0
    0.8675    0.6913    0.2739 H   0  0  0  0  0  0  0  0  0  0  0  0
    0.6573   -3.5199    0.2315 H   0  0  0  0  0  0  0  0  0  0  0  0
    5.6543    1.0556    2.0396 H   0  0  0  0  0  0  0  0  0  0  0  0
    3.1070    1.6335    0.7303 H   0  0  0  0  0  0  0  0  0  0  0  0
    4.3288    3.0270    2.6653 H   0  0  0  0  0  0  0  0  0  0  0  0
    5.9154    3.5047    2.0332 H   0  0  0  0  0  0  0  0  0  0  0  0
    4.4710    3.6805    1.0279 H   0  0  0  0  0  0  0  0  0  0  0  0
    5.3098   -3.1723    1.2920 H   0  0  0  0  0  0  0  0  0  0  0  0
    4.4044    1.8148   -1.3888 H   0  0  0  0  0  0  0  0  0  0  0  0
    7.8717    1.3595    1.1452 H   0  0  0  0  0  0  0  0  0  0  0  0
    5.8453    1.7247   -3.3694 H   0  0  0  0  0  0  0  0  0  0  0  0
    9.3092    1.2865   -0.8648 H   0  0  0  0  0  0  0  0  0  0  0  0
    8.3003    1.4677   -3.1240 H   0  0  0  0  0  0  0  0  0  0  0  0
  1  7  1  0  0  0  0
  1  8  1  0  0  0  0
  1 11  1  0  0  0  0
  2  9  1  0  0  0  0
  2 10  1  0  0  0  0
  2 12  1  0  0  0  0
  3 20  1  0  0  0  0
  3 23  1  0  0  0  0
  3 54  1  0  0  0  0
  4 24  1  0  0  0  0
  4 25  1  0  0  0  0
  4 56  1  0  0  0  0
  5 23  1  0  0  0  0
  5 28  2  0  0  0  0
  6 25  2  0  0  0  0
  6 28  1  0  0  0  0
  7  9  1  0  0  0  0
  7 34  1  0  0  0  0
  7 35  1  0  0  0  0
  8 10  1  0  0  0  0
  8 36  1  0  0  0  0
  8 37  1  0  0  0  0
  9 38  1  0  0  0  0
  9 39  1  0  0  0  0
 10 40  1  0  0  0  0
 10 41  1  0  0  0  0
 11 13  1  0  0  0  0
 11 42  1  0  0  0  0
 11 43  1  0  0  0  0
 12 14  1  0  0  0  0
 12 44  1  0  0  0  0
 12 45  1  0  0  0  0
 13 15  2  0  0  0  0
 13 16  1  0  0  0  0
 14 46  1  0  0  0  0
 14 47  1  0  0  0  0
 14 48  1  0  0  0  0
 15 18  1  0  0  0  0
 15 49  1  0  0  0  0
 16 19  2  0  0  0  0
 16 50  1  0  0  0  0
 17 18  2  0  0  0  0
 17 19  1  0  0  0  0
 17 20  1  0  0  0  0
 18 51  1  0  0  0  0
 19 52  1  0  0  0  0
 20 22  2  0  0  0  0
 21 22  1  0  0  0  0
 21 23  2  0  0  0  0
 21 25  1  0  0  0  0
 22 53  1  0  0  0  0
 24 26  1  0  0  0  0
 24 27  1  0  0  0  0
 24 55  1  0  0  0  0
 26 29  2  0  0  0  0
 26 30  1  0  0  0  0
 27 57  1  0  0  0  0
 27 58  1  0  0  0  0
 27 59  1  0  0  0  0
 28 60  1  0  0  0  0
 29 31  1  0  0  0  0
 29 61  1  0  0  0  0
 30 32  2  0  0  0  0
 30 62  1  0  0  0  0
 31 33  2  0  0  0  0
 31 63  1  0  0  0  0
 32 33  1  0  0  0  0
 32 64  1  0  0  0  0
 33 65  1  0  0  0  0
M  END
> <PUBCHEM_COMPOUND_CID>
10297043

> <PUBCHEM_CONFORMER_RMSD>
1

> <PUBCHEM_CONFORMER_DIVERSEORDER>
1
84
49
116
71
48
39
104
124
53
114
90
67
102
113
60
76
135
64
46
15
111
125
98
55
80
109
77
79
52
28
95
51
121
59
75
11
12
88
19
61
72
139
47
32
63
62
70
42
65
24
122
108
128
14
117
115
138
97
119
74
31
100
83
137
73
16
96
17
93
54
68
103
23
33
85
27
43
29
134
82
118
133
99
35
112
13
132
56
81
86
57
40
18
58
91
45
37
107
41
78
101
30
9
2
129
38
131
66
34
92
36
10
44
22
136
123
4
21
5
3
106
120
6
87
25
94
69
50
126
130
127
110
20
105
89
26
8
7

> <PUBCHEM_MMFF94_PARTIAL_CHARGES>
43
1 -0.81
10 0.27
11 0.41
12 0.27
13 -0.14
15 -0.15
16 -0.15
17 0.05
18 -0.15
19 -0.15
2 -0.81
20 -0.2
22 -0.15
23 0.11
24 0.51
25 0.41
26 -0.14
28 0.47
29 -0.15
3 0.03
30 -0.15
31 -0.15
32 -0.15
33 -0.15
4 -0.87
49 0.15
5 -0.57
50 0.15
51 0.15
52 0.15
53 0.15
54 0.27
56 0.4
6 -0.62
60 0.15
61 0.15
62 0.15
63 0.15
64 0.15
65 0.15
7 0.27
8 0.27
9 0.27

> <PUBCHEM_EFFECTIVE_ROTOR_COUNT>
8.2

> <PUBCHEM_PHARMACOPHORE_FEATURES>
12
1 1 cation
1 2 cation
1 3 cation
1 3 donor
1 4 donor
3 4 6 25 cation
3 5 6 28 cation
5 3 20 21 22 23 rings
6 1 2 7 8 9 10 rings
6 13 15 16 17 18 19 rings
6 26 29 30 31 32 33 rings
6 5 6 21 23 25 28 rings

> <PUBCHEM_HEAVY_ATOM_COUNT>
33

> <PUBCHEM_ATOM_DEF_STEREO_COUNT>
1

> <PUBCHEM_ATOM_UDEF_STEREO_COUNT>
0

> <PUBCHEM_BOND_DEF_STEREO_COUNT>
0

> <PUBCHEM_BOND_UDEF_STEREO_COUNT>
0

> <PUBCHEM_ISOTOPIC_ATOM_COUNT>
0

> <PUBCHEM_COMPONENT_COUNT>
1

> <PUBCHEM_CACTVS_TAUTO_COUNT>
9

> <PUBCHEM_CONFORMER_ID>
009D1ED300000001

> <PUBCHEM_MMFF94_ENERGY>
83.5046

> <PUBCHEM_FEATURE_SELFOVERLAP>
61.133

> <PUBCHEM_SHAPE_FINGERPRINT>
10 15 16588016931250129375
10554248 39 18129083555713500151
10906281 52 18041000678036597570
11386260 185 15769484409157194424
11408170 132 18131354072973029014
11411753 29 16734097934827477646
1200032 147 18259704501874028778
12013929 112 18270975578638158294
12539765 74 18342460305169340367
13383668 362 11458722645909536270
13782708 43 11455899091211786531
13944108 23 18410293623547664528
14347332 77 10159711204447488611
14394314 77 18413108356051058281
14747281 78 18339657628671191214
14849402 71 18410009953863797037
15064981 113 16200154240803012093
15064981 194 18264214788549200711
15183329 4 17060344032340037294
15276724 80 18337664218495302589
15400415 2 18335125506335098483
1577012 14 18343298155110182931
16067689 134 18343025480306243297
1754908 1 14418134006842158277
19958102 18 13038901149313754285
2026 5 11239733971293655860
21585482 111 18338513037599620909
21781055 127 18412539891459154738
21792964 463 18261970556268190881
21987483 16 8429725281572698077
23522609 53 18410016528962446103
23569914 152 17058105293706360302
23576562 1 17701241763127941141
23729398 52 18123194502283949758
24771293 8 18334012792388207557
3418910 222 18341334466446528321
3711267 37 18337397131300889172
397830 11 16732990855287744035
3986486 107 18130799979659365060
4073 2 18113334228514549275
4093350 32 18272091587151448046
4169191 19 18187639211597285943
44555599 121 18272364236106904585
504579 68 17846782922562343154
5109719 28 17312819377014770356
5718773 13 9295288348434125299
6201320 221 13973138492612634620
6201320 82 17027424814454013908
6328613 192 18342731915232905659
6438161 24 12247683777146122518

> <PUBCHEM_SHAPE_MULTIPOLES>
649.24
29.24
3.74
1.74
24.11
0.1
0.47
30.03
4.63
1.22
-1.62
-1.72
1.05
-4.47

> <PUBCHEM_SHAPE_SELFOVERLAP>
1412.156

> <PUBCHEM_SHAPE_VOLUME>
348.1

> <PUBCHEM_COORDINATE_TYPE>
2
5
10

$$$$
11671467
  -OEChem-11282412143D

 66 69  0     0  0  0  0  0  0999 V2000
   -0.6542    0.9048   -3.2935 P   0  0  0  0  0  0  0  0  0  0  0  0
   -0.1197   -5.9235   -0.2541 F   0  0  0  0  0  0  0  0  0  0  0  0
    4.7649    0.4585    0.1723 O   0  0  0  0  0  0  0  0  0  0  0  0
    2.7525    3.1192   -1.1536 O   0  0  0  0  0  0  0  0  0  0  0  0
    0.7405    0.8171   -2.4780 O   0  0  0  0  0  0  0  0  0  0  0  0
   -1.1835    2.3964   -2.9626 O   0  0  0  0  0  0  0  0  0  0  0  0
   -1.6570   -0.0356   -2.4406 O   0  0  0  0  0  0  0  0  0  0  0  0
   -0.5711    0.5710   -4.7543 O   0  0  0  0  0  0  0  0  0  0  0  0
   -0.5628    1.6309    2.8422 O   0  0  0  0  0  0  0  0  0  0  0  0
   -4.1462    3.2187    0.0901 O   0  0  0  0  0  0  0  0  0  0  0  0
   -2.0683    3.7322    1.8476 O   0  0  0  0  0  0  0  0  0  0  0  0
    2.0855    0.9761   -0.5723 N   0  0  0  0  0  0  0  0  0  0  0  0
    1.5537   -1.2918    0.0103 N   0  0  0  0  0  0  0  0  0  0  0  0
    1.0250   -3.5503    0.5532 N   0  0  0  0  0  0  0  0  0  0  0  0
   -1.0937   -2.4955    0.4450 N   0  0  0  0  0  0  0  0  0  0  0  0
   -3.2109   -1.4913    0.3217 N   0  0  0  0  0  0  0  0  0  0  0  0
   -3.0292   -3.7662   -0.2232 N   0  0  0  0  0  0  0  0  0  0  0  0
    4.2846    1.7968    0.1704 C   0  0  0  0  0  0  0  0  0  0  0  0
    2.9849    2.0358   -0.6149 C   0  0  0  0  0  0  0  0  0  0  0  0
    2.4730   -0.2956   -0.0735 C   0  0  0  0  0  0  0  0  0  0  0  0
    5.4081    2.6385   -0.4507 C   0  0  0  0  0  0  0  0  0  0  0  0
    4.0718    2.2513    1.6235 C   0  0  0  0  0  0  0  0  0  0  0  0
    3.8028   -0.4996    0.2682 C   0  0  0  0  0  0  0  0  0  0  0  0
    0.7320    1.1198   -1.0950 C   0  0  0  0  0  0  0  0  0  0  0  0
    4.2080   -1.7637    0.6932 C   0  0  0  0  0  0  0  0  0  0  0  0
    1.9723   -2.5029    0.4419 C   0  0  0  0  0  0  0  0  0  0  0  0
    3.2781   -2.7888    0.7901 C   0  0  0  0  0  0  0  0  0  0  0  0
   -0.3533   -3.6131    0.2923 C   0  0  0  0  0  0  0  0  0  0  0  0
   -0.8716   -4.8275   -0.1091 C   0  0  0  0  0  0  0  0  0  0  0  0
   -2.4049   -2.6412    0.1743 C   0  0  0  0  0  0  0  0  0  0  0  0
   -2.9224   -0.1694    0.7090 C   0  0  0  0  0  0  0  0  0  0  0  0
   -3.6828    0.8864    0.2061 C   0  0  0  0  0  0  0  0  0  0  0  0
   -1.8753    0.0852    1.5945 C   0  0  0  0  0  0  0  0  0  0  0  0
   -1.5887    1.3956    1.9774 C   0  0  0  0  0  0  0  0  0  0  0  0
   -3.3962    2.1967    0.5890 C   0  0  0  0  0  0  0  0  0  0  0  0
   -2.3492    2.4513    1.4746 C   0  0  0  0  0  0  0  0  0  0  0  0
   -2.2295   -4.8448   -0.3553 C   0  0  0  0  0  0  0  0  0  0  0  0
    0.1646    0.4962    3.3090 C   0  0  0  0  0  0  0  0  0  0  0  0
   -5.1973    2.8723   -0.8094 C   0  0  0  0  0  0  0  0  0  0  0  0
   -1.1343    4.4499    1.0442 C   0  0  0  0  0  0  0  0  0  0  0  0
    6.3581    2.4710    0.0699 H   0  0  0  0  0  0  0  0  0  0  0  0
    5.5693    2.3516   -1.4967 H   0  0  0  0  0  0  0  0  0  0  0  0
    5.1853    3.7106   -0.4252 H   0  0  0  0  0  0  0  0  0  0  0  0
    4.9815    2.1043    2.2167 H   0  0  0  0  0  0  0  0  0  0  0  0
    3.7849    3.3072    1.6764 H   0  0  0  0  0  0  0  0  0  0  0  0
    3.2814    1.6715    2.1138 H   0  0  0  0  0  0  0  0  0  0  0  0
    0.4165    2.1595   -0.9603 H   0  0  0  0  0  0  0  0  0  0  0  0
    0.0284    0.4790   -0.5605 H   0  0  0  0  0  0  0  0  0  0  0  0
    5.2459   -1.9516    0.9539 H   0  0  0  0  0  0  0  0  0  0  0  0
    3.5854   -3.7725    1.1290 H   0  0  0  0  0  0  0  0  0  0  0  0
    1.4222   -4.4356    0.8560 H   0  0  0  0  0  0  0  0  0  0  0  0
   -4.1550   -1.6328   -0.0248 H   0  0  0  0  0  0  0  0  0  0  0  0
   -4.4818    0.6277   -0.4811 H   0  0  0  0  0  0  0  0  0  0  0  0
   -1.3403   -0.7563    2.0122 H   0  0  0  0  0  0  0  0  0  0  0  0
   -1.9916    2.7241   -3.4117 H   0  0  0  0  0  0  0  0  0  0  0  0
   -2.5623   -0.1969   -2.7815 H   0  0  0  0  0  0  0  0  0  0  0  0
   -2.7265   -5.7543   -0.6753 H   0  0  0  0  0  0  0  0  0  0  0  0
    0.9530    0.8708    3.9703 H   0  0  0  0  0  0  0  0  0  0  0  0
    0.6650   -0.0306    2.4911 H   0  0  0  0  0  0  0  0  0  0  0  0
   -0.4651   -0.1668    3.9120 H   0  0  0  0  0  0  0  0  0  0  0  0
   -5.6882    3.8053   -1.1052 H   0  0  0  0  0  0  0  0  0  0  0  0
   -5.9590    2.2540   -0.3222 H   0  0  0  0  0  0  0  0  0  0  0  0
   -4.8094    2.4140   -1.7256 H   0  0  0  0  0  0  0  0  0  0  0  0
   -1.0359    5.4596    1.4521 H   0  0  0  0  0  0  0  0  0  0  0  0
   -1.4884    4.5228    0.0109 H   0  0  0  0  0  0  0  0  0  0  0  0
   -0.1531    3.9651    1.0702 H   0  0  0  0  0  0  0  0  0  0  0  0
  1  5  1  0  0  0  0
  1  6  1  0  0  0  0
  1  7  1  0  0  0  0
  1  8  2  0  0  0  0
  2 29  1  0  0  0  0
  3 18  1  0  0  0  0
  3 23  1  0  0  0  0
  4 19  2  0  0  0  0
  5 24  1  0  0  0  0
  6 55  1  0  0  0  0
  7 56  1  0  0  0  0
  9 34  1  0  0  0  0
  9 38  1  0  0  0  0
 10 35  1  0  0  0  0
 10 39  1  0  0  0  0
 11 36  1  0  0  0  0
 11 40  1  0  0  0  0
 12 19  1  0  0  0  0
 12 20  1  0  0  0  0
 12 24  1  0  0  0  0
 13 20  1  0  0  0  0
 13 26  2  0  0  0  0
 14 26  1  0  0  0  0
 14 28  1  0  0  0  0
 14 51  1  0  0  0  0
 15 28  2  0  0  0  0
 15 30  1  0  0  0  0
 16 30  1  0  0  0  0
 16 31  1  0  0  0  0
 16 52  1  0  0  0  0
 17 30  2  0  0  0  0
 17 37  1  0  0  0  0
 18 19  1  0  0  0  0
 18 21  1  0  0  0  0
 18 22  1  0  0  0  0
 20 23  2  0  0  0  0
 21 41  1  0  0  0  0
 21 42  1  0  0  0  0
 21 43  1  0  0  0  0
 22 44  1  0  0  0  0
 22 45  1  0  0  0  0
 22 46  1  0  0  0  0
 23 25  1  0  0  0  0
 24 47  1  0  0  0  0
 24 48  1  0  0  0  0
 25 27  2  0  0  0  0
 25 49  1  0  0  0  0
 26 27  1  0  0  0  0
 27 50  1  0  0  0  0
 28 29  1  0  0  0  0
 29 37  2  0  0  0  0
 31 32  2  0  0  0  0
 31 33  1  0  0  0  0
 32 35  1  0  0  0  0
 32 53  1  0  0  0  0
 33 34  2  0  0  0  0
 33 54  1  0  0  0  0
 34 36  1  0  0  0  0
 35 36  2  0  0  0  0
 37 57  1  0  0  0  0
 38 58  1  0  0  0  0
 38 59  1  0  0  0  0
 38 60  1  0  0  0  0
 39 61  1  0  0  0  0
 39 62  1  0  0  0  0
 39 63  1  0  0  0  0
 40 64  1  0  0  0  0
 40 65  1  0  0  0  0
 40 66  1  0  0  0  0
M  END
> <PUBCHEM_COMPOUND_CID>
11671467

> <PUBCHEM_CONFORMER_RMSD>
1.2

> <PUBCHEM_CONFORMER_DIVERSEORDER>
1
16
13
10
24
8
17
14
2
12
20
6
22
7
15
23
19
18
3
9
4
5
11
21

> <PUBCHEM_MMFF94_PARTIAL_CHARGES>
47
1 1.51
10 -0.36
11 -0.36
12 -0.48
13 -0.62
14 -0.6
15 -0.62
16 -0.6
17 -0.62
18 0.34
19 0.57
2 -0.19
20 0.43
23 0.08
24 0.58
25 -0.15
26 0.41
27 -0.15
28 0.41
29 0.19
3 -0.36
30 0.72
31 0.1
32 -0.15
33 -0.15
34 0.08
35 0.08
36 0.08
37 0.16
38 0.28
39 0.28
4 -0.57
40 0.28
49 0.15
5 -0.55
50 0.15
51 0.4
52 0.4
53 0.15
54 0.15
55 0.5
56 0.5
57 0.15
6 -0.77
7 -0.77
8 -0.7
9 -0.36

> <PUBCHEM_EFFECTIVE_ROTOR_COUNT>
10.6

> <PUBCHEM_PHARMACOPHORE_FEATURES>
18
1 10 acceptor
1 11 acceptor
1 14 donor
1 16 donor
1 3 acceptor
1 4 acceptor
1 6 acceptor
1 7 acceptor
1 8 acceptor
1 9 acceptor
3 13 14 26 cation
3 18 21 22 hydrophobe
4 1 6 7 8 anion
4 15 16 17 30 cation
6 13 20 23 25 26 27 rings
6 15 17 28 29 30 37 rings
6 3 12 18 19 20 23 rings
6 31 32 33 34 35 36 rings

> <PUBCHEM_HEAVY_ATOM_COUNT>
40

> <PUBCHEM_ATOM_DEF_STEREO_COUNT>
0

> <PUBCHEM_ATOM_UDEF_STEREO_COUNT>
0

> <PUBCHEM_BOND_DEF_STEREO_COUNT>
0

> <PUBCHEM_BOND_UDEF_STEREO_COUNT>
0

> <PUBCHEM_ISOTOPIC_ATOM_COUNT>
0

> <PUBCHEM_COMPONENT_COUNT>
1

> <PUBCHEM_CACTVS_TAUTO_COUNT>
13

> <PUBCHEM_CONFORMER_ID>
00B217AB00000001

> <PUBCHEM_MMFF94_ENERGY>
124.9807

> <PUBCHEM_FEATURE_SELFOVERLAP>
91.433

> <PUBCHEM_SHAPE_FINGERPRINT>
10032420 55 18058431249083342145
10816530 23 18115568414076230501
11370993 70 18338798918478677505
11434127 23 17844833501896350468
11513181 2 18272378598193745462
12104220 1 18197216065487540024
12156800 1 16309578947415581429
12655364 131 17837740385229593642
12788726 201 17616831258920297220
13583140 156 18201997767856504904
14068700 675 17688311609079193526
14117953 113 17905884782460239538
14932702 115 18130787897219678816
19319366 153 17985530183587297251
19930381 70 17544193775213987705
20600515 1 17266699430043754779
20764821 26 16606888609490294074
25265897 201 17984173428798340151
35225 105 17775847904295291100
392239 28 17766564925433119760
463206 1 17978240678861131051
469060 322 17752757211182698788
550186 7 17914918636455606340

> <PUBCHEM_SHAPE_MULTIPOLES>
737.05
8.25
7.01
2.87
5.04
8
2.66
-5.97
-0.75
-3.72
-0.74
-1.13
-2.4
-1.04

> <PUBCHEM_SHAPE_SELFOVERLAP>
1573.56

> <PUBCHEM_SHAPE_VOLUME>
415.4

> <PUBCHEM_COORDINATE_TYPE>
2
5
10

$$$$
6444692
  -OEChem-11282412143D

 57 60  0     0  0  0  0  0  0999 V2000
   -9.6550   -3.7472   -0.8875 F   0  0  0  0  0  0  0  0  0  0  0  0
  -10.7479   -1.8781   -0.7608 F   0  0  0  0  0  0  0  0  0  0  0  0
  -10.2358   -2.9602    1.0546 F   0  0  0  0  0  0  0  0  0  0  0  0
    0.7704    2.4021   -0.5043 O   0  0  0  0  0  0  0  0  0  0  0  0
   -3.3854    3.6813    0.1759 O   0  0  0  0  0  0  0  0  0  0  0  0
    9.8592   -2.3313    0.1280 N   0  0  0  0  0  0  0  0  0  0  0  0
   10.6271   -2.4948   -0.9613 N   0  0  0  0  0  0  0  0  0  0  0  0
   11.8597   -2.7548   -0.5395 N   0  0  0  0  0  0  0  0  0  0  0  0
   -2.2659    1.7372    0.4627 N   0  0  0  0  0  0  0  0  0  0  0  0
    6.6175   -0.2467   -0.1281 C   0  0  0  0  0  0  0  0  0  0  0  0
    8.1215   -0.5379   -0.0545 C   0  0  0  0  0  0  0  0  0  0  0  0
    6.3022    1.2528   -0.1869 C   0  0  0  0  0  0  0  0  0  0  0  0
    8.4372   -2.0353   -0.0018 C   0  0  0  0  0  0  0  0  0  0  0  0
    4.8281    1.5593   -0.2720 C   0  0  0  0  0  0  0  0  0  0  0  0
    4.0843    1.7352    0.8949 C   0  0  0  0  0  0  0  0  0  0  0  0
    4.2081    1.6668   -1.5169 C   0  0  0  0  0  0  0  0  0  0  0  0
    2.7208    2.0186    0.8169 C   0  0  0  0  0  0  0  0  0  0  0  0
    2.8446    1.9501   -1.5950 C   0  0  0  0  0  0  0  0  0  0  0  0
    2.1010    2.1261   -0.4280 C   0  0  0  0  0  0  0  0  0  0  0  0
   10.5762   -2.4822    1.2748 C   0  0  0  0  0  0  0  0  0  0  0  0
    0.0704    2.5701    0.7274 C   0  0  0  0  0  0  0  0  0  0  0  0
   11.8456   -2.7505    0.8276 C   0  0  0  0  0  0  0  0  0  0  0  0
   -1.3891    2.7906    0.5117 C   0  0  0  0  0  0  0  0  0  0  0  0
   -6.0501   -0.4514    0.1207 C   0  0  0  0  0  0  0  0  0  0  0  0
   -3.4246    2.3234    0.2632 C   0  0  0  0  0  0  0  0  0  0  0  0
   -2.0646    3.9729    0.3379 C   0  0  0  0  0  0  0  0  0  0  0  0
   -8.4590   -1.8459   -0.0656 C   0  0  0  0  0  0  0  0  0  0  0  0
   -4.7768    0.2853    0.2186 C   0  0  0  0  0  0  0  0  0  0  0  0
   -7.1624    0.1530   -0.4654 C   0  0  0  0  0  0  0  0  0  0  0  0
   -6.1425   -1.7530    0.6136 C   0  0  0  0  0  0  0  0  0  0  0  0
   -4.6544    1.6306    0.1423 C   0  0  0  0  0  0  0  0  0  0  0  0
   -8.3668   -0.5443   -0.5586 C   0  0  0  0  0  0  0  0  0  0  0  0
   -7.3469   -2.4503    0.5205 C   0  0  0  0  0  0  0  0  0  0  0  0
   -9.7468   -2.5916   -0.1652 C   0  0  0  0  0  0  0  0  0  0  0  0
    6.1980   -0.7437   -1.0121 H   0  0  0  0  0  0  0  0  0  0  0  0
    6.1207   -0.6911    0.7437 H   0  0  0  0  0  0  0  0  0  0  0  0
    8.5414   -0.0459    0.8320 H   0  0  0  0  0  0  0  0  0  0  0  0
    8.6230   -0.0918   -0.9225 H   0  0  0  0  0  0  0  0  0  0  0  0
    6.8127    1.7027   -1.0485 H   0  0  0  0  0  0  0  0  0  0  0  0
    6.7236    1.7525    0.6952 H   0  0  0  0  0  0  0  0  0  0  0  0
    7.9384   -2.5029    0.8553 H   0  0  0  0  0  0  0  0  0  0  0  0
    8.0824   -2.5408   -0.9075 H   0  0  0  0  0  0  0  0  0  0  0  0
    4.5571    1.6528    1.8702 H   0  0  0  0  0  0  0  0  0  0  0  0
    4.7766    1.5297   -2.4329 H   0  0  0  0  0  0  0  0  0  0  0  0
    2.2092    2.1478    1.7642 H   0  0  0  0  0  0  0  0  0  0  0  0
    2.3669    2.0320   -2.5675 H   0  0  0  0  0  0  0  0  0  0  0  0
   10.1444   -2.3896    2.2610 H   0  0  0  0  0  0  0  0  0  0  0  0
    0.1641    1.6670    1.3448 H   0  0  0  0  0  0  0  0  0  0  0  0
    0.4680    3.4367    1.2718 H   0  0  0  0  0  0  0  0  0  0  0  0
   12.7356   -2.9377    1.4090 H   0  0  0  0  0  0  0  0  0  0  0  0
   -1.7932    5.0172    0.3037 H   0  0  0  0  0  0  0  0  0  0  0  0
   -7.1324    1.1550   -0.8827 H   0  0  0  0  0  0  0  0  0  0  0  0
   -5.2862   -2.2394    1.0745 H   0  0  0  0  0  0  0  0  0  0  0  0
   -3.8950   -0.3309    0.3818 H   0  0  0  0  0  0  0  0  0  0  0  0
   -5.5283    2.2600    0.0084 H   0  0  0  0  0  0  0  0  0  0  0  0
   -9.2210   -0.0591   -1.0227 H   0  0  0  0  0  0  0  0  0  0  0  0
   -7.4093   -3.4639    0.9075 H   0  0  0  0  0  0  0  0  0  0  0  0
  1 34  1  0  0  0  0
  2 34  1  0  0  0  0
  3 34  1  0  0  0  0
  4 19  1  0  0  0  0
  4 21  1  0  0  0  0
  5 25  1  0  0  0  0
  5 26  1  0  0  0  0
  6  7  1  0  0  0  0
  6 13  1  0  0  0  0
  6 20  1  0  0  0  0
  7  8  2  0  0  0  0
  8 22  1  0  0  0  0
  9 23  1  0  0  0  0
  9 25  2  0  0  0  0
 10 11  1  0  0  0  0
 10 12  1  0  0  0  0
 10 35  1  0  0  0  0
 10 36  1  0  0  0  0
 11 13  1  0  0  0  0
 11 37  1  0  0  0  0
 11 38  1  0  0  0  0
 12 14  1  0  0  0  0
 12 39  1  0  0  0  0
 12 40  1  0  0  0  0
 13 41  1  0  0  0  0
 13 42  1  0  0  0  0
 14 15  2  0  0  0  0
 14 16  1  0  0  0  0
 15 17  1  0  0  0  0
 15 43  1  0  0  0  0
 16 18  2  0  0  0  0
 16 44  1  0  0  0  0
 17 19  2  0  0  0  0
 17 45  1  0  0  0  0
 18 19  1  0  0  0  0
 18 46  1  0  0  0  0
 20 22  2  0  0  0  0
 20 47  1  0  0  0  0
 21 23  1  0  0  0  0
 21 48  1  0  0  0  0
 21 49  1  0  0  0  0
 22 50  1  0  0  0  0
 23 26  2  0  0  0  0
 24 28  1  0  0  0  0
 24 29  2  0  0  0  0
 24 30  1  0  0  0  0
 25 31  1  0  0  0  0
 26 51  1  0  0  0  0
 27 32  2  0  0  0  0
 27 33  1  0  0  0  0
 27 34  1  0  0  0  0
 28 31  2  0  0  0  0
 28 54  1  0  0  0  0
 29 32  1  0  0  0  0
 29 52  1  0  0  0  0
 30 33  2  0  0  0  0
 30 53  1  0  0  0  0
 31 55  1  0  0  0  0
 32 56  1  0  0  0  0
 33 57  1  0  0  0  0
M  END
> <PUBCHEM_COMPOUND_CID>
6444692

> <PUBCHEM_CONFORMER_RMSD>
1

> <PUBCHEM_CONFORMER_DIVERSEORDER>
1
104
16
100
140
163
183
58
149
188
110
31
80
87
135
70
102
127
180
192
35
157
174
105
56
175
129
53
123
197
126
51
101
122
178
158
46
186
118
117
181
76
147
2
162
210
208
144
68
120
77
170
150
203
59
67
121
125
146
93
179
153
99
156
200
91
173
119
50
169
74
92
151
209
185
79
152
106
114
43
194
47
207
214
213
134
63
138
195
182
167
38
172
11
145
160
115
107
176
168
204
103
155
191
130
202
187
206
54
6
98
171
193
40
205
164
141
25
113
4
142
124
190
111
52
112
8
184
81
84
177
143
201
159
139
41
75
94
198
189
18
12
211
196
86
131
136
97
14
109
20
90
148
62
132
65
17
83
13
212
165
39
44
37
166
26
96
23
48
72
28
199
137
45
69
49
22
15
21
29
95
57
27
133
61
116
89
30
42
78
33
66
154
34
128
88
82
32
10
3
108
73
9
55
36
7
161
5
60
24
85
19
64
71

> <PUBCHEM_MMFF94_PARTIAL_CHARGES>
45
1 -0.34
12 0.14
13 0.26
14 -0.14
15 -0.15
16 -0.15
17 -0.15
18 -0.15
19 0.08
2 -0.34
20 -0.3
21 0.46
22 0.08
23 0.05
24 0.03
25 0.43
26 -0.01
27 -0.14
28 -0.18
29 -0.15
3 -0.34
30 -0.15
31 -0.11
32 -0.15
33 -0.15
34 1.16
4 -0.36
43 0.15
44 0.15
45 0.15
46 0.15
47 0.15
5 -0.28
50 0.15
51 0.15
52 0.15
53 0.15
54 0.15
55 0.15
56 0.15
57 0.15
6 0.31
7 -0.42
8 -0.23
9 -0.57

> <PUBCHEM_EFFECTIVE_ROTOR_COUNT>
11

> <PUBCHEM_PHARMACOPHORE_FEATURES>
5
1 4 acceptor
5 5 9 23 25 26 rings
5 6 7 8 20 22 rings
6 14 15 16 17 18 19 rings
6 24 27 29 30 32 33 rings

> <PUBCHEM_HEAVY_ATOM_COUNT>
34

> <PUBCHEM_ATOM_DEF_STEREO_COUNT>
0

> <PUBCHEM_ATOM_UDEF_STEREO_COUNT>
0

> <PUBCHEM_BOND_DEF_STEREO_COUNT>
1

> <PUBCHEM_BOND_UDEF_STEREO_COUNT>
0

> <PUBCHEM_ISOTOPIC_ATOM_COUNT>
0

> <PUBCHEM_COMPONENT_COUNT>
1

> <PUBCHEM_CACTVS_TAUTO_COUNT>
1

> <PUBCHEM_CONFORMER_ID>
0062569400000001

> <PUBCHEM_MMFF94_ENERGY>
66.6732

> <PUBCHEM_FEATURE_SELFOVERLAP>
25.374

> <PUBCHEM_SHAPE_FINGERPRINT>
10100884 174 18409449198158752826
10533779 47 16271932568036589342
10952577 141 10809343338919271009
11421887 21 11386356016121849310
11607047 74 18190745435390264124
11672396 167 18410011035266965452
11828042 75 18041010578158463947
12013929 94 18342740690362943464
12498461 61 18340770352103503985
12838863 1 18410575093300687774
13165054 27 9583247111366456651
13530399 1 9655574106847820622
13974486 7 18270955864702164359
14359421 15 18259984877302480811
14617042 71 9727635011989126674
14965480 1 17753342152182469723
15247644 1 18267584599903156226
15347590 135 15698001808503720074
2026 5 18411136948686450983
20982279 24 18041011678296740947
21057603 323 18337384939434622029
21130991 4 18410009948682366111
212700 22 18260545670997527618
21362857 166 18335144202590670652
21792965 78 18187370908763266555
21895431 317 18336263445441382490
21987483 16 18343017835670352608
22002106 203 18410289208225936104
23523787 8 15430036573829392432
23523788 1 17560532728388176492
23528940 14 18337669721134645538
23569917 315 18410579462000151406
23569943 247 18270122465728112235
2835820 83 18411419518331228402
2851757 41 18410578400478545699
3918712 181 8934735383305261527
406291 66 18409730668433891704
4353968 344 18334574594805164661
44389302 135 18202287978485179567
4760202 70 18113910360592565876
54039377 194 18409730659738306311
54131252 152 18339924815542109913
5470011 282 17459756015677140813
5718773 13 18411984667208048696
6204607 403 11311469435376091290

> <PUBCHEM_SHAPE_MULTIPOLES>
646.22
48.66
5.24
1.04
45.96
0.28
0.13
80.56
0.68
-1.74
-0.43
0.95
-0.04
-1.71

> <PUBCHEM_SHAPE_SELFOVERLAP>
1387.984

> <PUBCHEM_SHAPE_VOLUME>
358.9

> <PUBCHEM_COORDINATE_TYPE>
2
5
10

$$$$
118115473
  -OEChem-11282412143D

 40 42  0     1  0  0  0  0  0999 V2000
   -2.7831    2.1374   -0.8783 O   0  0  0  0  0  0  0  0  0  0  0  0
   -2.7200   -0.1025   -0.2374 N   0  0  0  0  0  0  0  0  0  0  0  0
    0.8605   -1.1020    0.1877 N   0  0  0  0  0  0  0  0  0  0  0  0
    1.4474    1.1237    0.7402 N   0  0  0  0  0  0  0  0  0  0  0  0
    5.2315    0.3404   -0.4394 N   0  0  0  0  0  0  0  0  0  0  0  0
    3.7072    1.9827    0.4514 N   0  0  0  0  0  0  0  0  0  0  0  0
   -0.5218   -0.9376    0.5804 C   0  0  2  0  0  0  0  0  0  0  0  0
   -3.4070   -1.3643    0.1299 C   0  0  2  0  0  0  0  0  0  0  0  0
   -1.1460   -2.3033    0.8592 C   0  0  0  0  0  0  0  0  0  0  0  0
   -2.6234   -2.1420    1.2002 C   0  0  0  0  0  0  0  0  0  0  0  0
   -1.2825   -0.2074   -0.5234 C   0  0  0  0  0  0  0  0  0  0  0  0
   -3.6886   -2.2134   -1.1124 C   0  0  0  0  0  0  0  0  0  0  0  0
   -3.3484    1.1258   -0.4581 C   0  0  0  0  0  0  0  0  0  0  0  0
    1.8046   -0.0940    0.2704 C   0  0  0  0  0  0  0  0  0  0  0  0
    3.1225   -0.3184   -0.1253 C   0  0  0  0  0  0  0  0  0  0  0  0
   -4.7945    1.2256   -0.1730 C   0  0  0  0  0  0  0  0  0  0  0  0
    3.9995    0.7529   -0.0060 C   0  0  0  0  0  0  0  0  0  0  0  0
    3.8671   -1.4060   -0.6493 C   0  0  0  0  0  0  0  0  0  0  0  0
    5.1624   -0.9714   -0.8334 C   0  0  0  0  0  0  0  0  0  0  0  0
    2.4077    2.0736    0.8007 C   0  0  0  0  0  0  0  0  0  0  0  0
   -5.2950    2.4001    0.2160 C   0  0  0  0  0  0  0  0  0  0  0  0
   -0.5813   -0.3548    1.5099 H   0  0  0  0  0  0  0  0  0  0  0  0
   -4.3743   -1.1314    0.5826 H   0  0  0  0  0  0  0  0  0  0  0  0
   -0.6268   -2.7920    1.6927 H   0  0  0  0  0  0  0  0  0  0  0  0
   -1.0309   -2.9658   -0.0078 H   0  0  0  0  0  0  0  0  0  0  0  0
   -3.0772   -3.1260    1.3663 H   0  0  0  0  0  0  0  0  0  0  0  0
   -2.6995   -1.5984    2.1514 H   0  0  0  0  0  0  0  0  0  0  0  0
   -0.8587    0.7899   -0.6815 H   0  0  0  0  0  0  0  0  0  0  0  0
   -1.1817   -0.7340   -1.4810 H   0  0  0  0  0  0  0  0  0  0  0  0
    1.1467   -1.9878   -0.2144 H   0  0  0  0  0  0  0  0  0  0  0  0
   -2.7682   -2.5186   -1.6198 H   0  0  0  0  0  0  0  0  0  0  0  0
   -4.2897   -1.6515   -1.8354 H   0  0  0  0  0  0  0  0  0  0  0  0
   -4.2427   -3.1192   -0.8451 H   0  0  0  0  0  0  0  0  0  0  0  0
   -5.4506    0.3782   -0.3194 H   0  0  0  0  0  0  0  0  0  0  0  0
    3.5054   -2.4006   -0.8712 H   0  0  0  0  0  0  0  0  0  0  0  0
    6.0628    0.9145   -0.4648 H   0  0  0  0  0  0  0  0  0  0  0  0
    6.0399   -1.4786   -1.2089 H   0  0  0  0  0  0  0  0  0  0  0  0
    2.0890    3.0379    1.1813 H   0  0  0  0  0  0  0  0  0  0  0  0
   -6.3588    2.4980    0.4071 H   0  0  0  0  0  0  0  0  0  0  0  0
   -4.6816    3.2822    0.3637 H   0  0  0  0  0  0  0  0  0  0  0  0
  1 13  2  0  0  0  0
  2  8  1  0  0  0  0
  2 11  1  0  0  0  0
  2 13  1  0  0  0  0
  3  7  1  0  0  0  0
  3 14  1  0  0  0  0
  3 30  1  0  0  0  0
  4 14  2  0  0  0  0
  4 20  1  0  0  0  0
  5 17  1  0  0  0  0
  5 19  1  0  0  0  0
  5 36  1  0  0  0  0
  6 17  1  0  0  0  0
  6 20  2  0  0  0  0
  7  9  1  0  0  0  0
  7 11  1  0  0  0  0
  7 22  1  0  0  0  0
  8 10  1  0  0  0  0
  8 12  1  0  0  0  0
  8 23  1  0  0  0  0
  9 10  1  0  0  0  0
  9 24  1  0  0  0  0
  9 25  1  0  0  0  0
 10 26  1  0  0  0  0
 10 27  1  0  0  0  0
 11 28  1  0  0  0  0
 11 29  1  0  0  0  0
 12 31  1  0  0  0  0
 12 32  1  0  0  0  0
 12 33  1  0  0  0  0
 13 16  1  0  0  0  0
 14 15  1  0  0  0  0
 15 17  2  0  0  0  0
 15 18  1  0  0  0  0
 16 21  2  0  0  0  0
 16 34  1  0  0  0  0
 18 19  2  0  0  0  0
 18 35  1  0  0  0  0
 19 37  1  0  0  0  0
 20 38  1  0  0  0  0
 21 39  1  0  0  0  0
 21 40  1  0  0  0  0
M  END
> <PUBCHEM_COMPOUND_CID>
118115473

> <PUBCHEM_CONFORMER_RMSD>
0.8

> <PUBCHEM_CONFORMER_DIVERSEORDER>
1
8
50
37
2
34
25
39
47
22
40
48
10
14
28
19
54
11
41
60
53
23
18
17
9
46
32
26
24
35
66
52
3
45
31
55
38
63
43
56
65
30
16
21
42
57
27
20
7
58
61
67
59
44
64
15
36
13
51
5
33
6
4
62
49
29
12

> <PUBCHEM_MMFF94_PARTIAL_CHARGES>
25
1 -0.57
11 0.3
13 0.62
14 0.41
16 -0.14
17 0.11
18 -0.15
19 -0.3
2 -0.66
20 0.47
21 -0.3
3 -0.87
30 0.4
34 0.15
35 0.15
36 0.27
37 0.15
38 0.15
39 0.15
4 -0.62
40 0.15
5 0.03
6 -0.57
7 0.37
8 0.3

> <PUBCHEM_EFFECTIVE_ROTOR_COUNT>
5.2

> <PUBCHEM_PHARMACOPHORE_FEATURES>
10
1 1 acceptor
1 21 hydrophobe
1 3 donor
1 5 cation
1 5 donor
3 3 4 14 cation
3 4 6 20 cation
5 5 15 17 18 19 rings
6 2 7 8 9 10 11 rings
6 4 6 14 15 17 20 rings

> <PUBCHEM_HEAVY_ATOM_COUNT>
21

> <PUBCHEM_ATOM_DEF_STEREO_COUNT>
2

> <PUBCHEM_ATOM_UDEF_STEREO_COUNT>
0

> <PUBCHEM_BOND_DEF_STEREO_COUNT>
0

> <PUBCHEM_BOND_UDEF_STEREO_COUNT>
0

> <PUBCHEM_ISOTOPIC_ATOM_COUNT>
0

> <PUBCHEM_COMPONENT_COUNT>
1

> <PUBCHEM_CACTVS_TAUTO_COUNT>
13

> <PUBCHEM_CONFORMER_ID>
070A4C9100000001

> <PUBCHEM_MMFF94_ENERGY>
45.4961

> <PUBCHEM_FEATURE_SELFOVERLAP>
50.979

> <PUBCHEM_SHAPE_FINGERPRINT>
10498660 4 17968642878774823229
10608611 8 18338232781785999448
10646746 165 18334292102221358898
1100329 8 16969424011601114496
11405975 8 18411697681845663714
11595378 159 16443337629121360156
12390115 104 18337965489376875713
12403259 415 18342460386873035896
12596602 18 14562541651825511461
12916754 54 17917149532410675943
13134695 92 17275099536014221056
13944108 23 16896512097230047453
14251757 17 18411983555185370722
15196674 1 18412261770044747304
17844677 252 18341056314539706108
1813 80 13470407811686081219
18186145 218 18334847312258772860
200 152 17704076238994295290
20645477 56 18333735684981831551
20645477 70 17775013418499861086
21033648 29 18271800272224826704
21065198 57 18338237166947796922
21279426 13 18339083670726535358
221357 26 18342173410006282463
221490 88 18340772641104281368
22182937 141 18410015438199144985
22289505 5 18272091578751001116
23402539 116 18409444791226466246
23402655 69 18342175561863986644
23557571 272 18341337776985040343
23559900 14 18341891879659168802
3004659 81 18188777137708605518
32948 21 18408326571106088662
335352 9 18339080385092196390
4214541 1 18412263943118604246
495365 180 17846484955538827056
5104073 3 18334571360915804864
5161694 15 18343023293866195426
5281201 14 18341617061607486324
543358 83 18410576141784508466
59027123 10 18130499820867703447
59755656 520 17676490523425342067
633830 44 18336258015837023630
7399639 24 17479727660351802288
90127 26 18337677515576628058
9709674 26 18338796852625742562
9996256 80 18412266142907056259

> <PUBCHEM_SHAPE_MULTIPOLES>
401.4
11.79
2.75
0.98
3.18
0.26
0.02
3.61
-2.37
-2.66
0.31
-0.22
-0.28
0.98

> <PUBCHEM_SHAPE_SELFOVERLAP>
856.77

> <PUBCHEM_SHAPE_VOLUME>
219.5

> <PUBCHEM_COORDINATE_TYPE>
2
5
10

$$$$
10366136
  -OEChem-11282412143D

 62 67  0     0  0  0  0  0  0999 V2000
   -8.1719   -0.3131   -0.6756 O   0  0  0  0  0  0  0  0  0  0  0  0
   -4.1850    0.1872   -0.7803 O   0  0  0  0  0  0  0  0  0  0  0  0
    3.0567   -1.9455    0.0565 N   0  0  0  0  0  0  0  0  0  0  0  0
   -0.1499   -4.6482    0.5503 N   0  0  0  0  0  0  0  0  0  0  0  0
    2.3574    0.7544    0.0993 N   0  0  0  0  0  0  0  0  0  0  0  0
    0.6915    2.3904    0.3062 N   0  0  0  0  0  0  0  0  0  0  0  0
   -1.0900    3.5660    0.9505 N   0  0  0  0  0  0  0  0  0  0  0  0
   -6.2383   -0.5660    0.1841 C   0  0  0  0  0  0  0  0  0  0  0  0
   -6.9116   -0.8360   -1.1538 C   0  0  0  0  0  0  0  0  0  0  0  0
   -7.6168   -0.1150    0.6447 C   0  0  0  0  0  0  0  0  0  0  0  0
   -5.2103    0.5481    0.1422 C   0  0  0  0  0  0  0  0  0  0  0  0
    1.1845   -4.1071    0.4707 C   0  0  0  0  0  0  0  0  0  0  0  0
   -5.7055   -1.7897    0.8827 C   0  0  0  0  0  0  0  0  0  0  0  0
    1.3880   -3.0150    1.5200 C   0  0  0  0  0  0  0  0  0  0  0  0
    1.4645   -3.5480   -0.9237 C   0  0  0  0  0  0  0  0  0  0  0  0
    2.7847   -2.4045    1.4258 C   0  0  0  0  0  0  0  0  0  0  0  0
    2.8598   -2.9311   -1.0123 C   0  0  0  0  0  0  0  0  0  0  0  0
    4.0121   -0.9350   -0.1067 C   0  0  0  0  0  0  0  0  0  0  0  0
    3.6507    0.4271   -0.0834 C   0  0  0  0  0  0  0  0  0  0  0  0
    5.3676   -1.2861   -0.2978 C   0  0  0  0  0  0  0  0  0  0  0  0
   -2.9359    0.6781   -0.5401 C   0  0  0  0  0  0  0  0  0  0  0  0
    4.6502    1.4082   -0.2519 C   0  0  0  0  0  0  0  0  0  0  0  0
    2.0261    2.0658    0.1194 C   0  0  0  0  0  0  0  0  0  0  0  0
    6.3469   -0.3144   -0.4631 C   0  0  0  0  0  0  0  0  0  0  0  0
   -0.4036    1.6467   -0.0685 C   0  0  0  0  0  0  0  0  0  0  0  0
   -2.7947    1.9123    0.1065 C   0  0  0  0  0  0  0  0  0  0  0  0
    5.9905    1.0309   -0.4404 C   0  0  0  0  0  0  0  0  0  0  0  0
   -1.4988    2.4006    0.3440 C   0  0  0  0  0  0  0  0  0  0  0  0
   -1.8173   -0.0555   -0.9422 C   0  0  0  0  0  0  0  0  0  0  0  0
    4.2637    2.7550   -0.2246 C   0  0  0  0  0  0  0  0  0  0  0  0
   -0.5202    0.4154   -0.7140 C   0  0  0  0  0  0  0  0  0  0  0  0
    2.9318    3.0954   -0.0364 C   0  0  0  0  0  0  0  0  0  0  0  0
    0.2231    3.5285    0.9114 C   0  0  0  0  0  0  0  0  0  0  0  0
   -6.5504   -0.2627   -2.0133 H   0  0  0  0  0  0  0  0  0  0  0  0
   -7.0094   -1.8869   -1.4449 H   0  0  0  0  0  0  0  0  0  0  0  0
   -8.1169   -0.7550    1.3791 H   0  0  0  0  0  0  0  0  0  0  0  0
   -7.7104    0.9282    0.9629 H   0  0  0  0  0  0  0  0  0  0  0  0
   -4.8215    0.7089    1.1568 H   0  0  0  0  0  0  0  0  0  0  0  0
   -5.6637    1.4840   -0.2084 H   0  0  0  0  0  0  0  0  0  0  0  0
    1.8928   -4.9204    0.6726 H   0  0  0  0  0  0  0  0  0  0  0  0
    1.2380   -3.4204    2.5281 H   0  0  0  0  0  0  0  0  0  0  0  0
    0.6425   -2.2198    1.3821 H   0  0  0  0  0  0  0  0  0  0  0  0
    0.7198   -2.7807   -1.1748 H   0  0  0  0  0  0  0  0  0  0  0  0
    1.3724   -4.3380   -1.6791 H   0  0  0  0  0  0  0  0  0  0  0  0
   -4.8245   -2.1931    0.3715 H   0  0  0  0  0  0  0  0  0  0  0  0
   -5.4181   -1.5646    1.9158 H   0  0  0  0  0  0  0  0  0  0  0  0
   -6.4511   -2.5924    0.9220 H   0  0  0  0  0  0  0  0  0  0  0  0
    3.5413   -3.1419    1.7214 H   0  0  0  0  0  0  0  0  0  0  0  0
    2.8478   -1.5692    2.1343 H   0  0  0  0  0  0  0  0  0  0  0  0
    2.9699   -2.4555   -1.9946 H   0  0  0  0  0  0  0  0  0  0  0  0
    3.6216   -3.7168   -0.9377 H   0  0  0  0  0  0  0  0  0  0  0  0
   -0.2875   -5.3489   -0.1771 H   0  0  0  0  0  0  0  0  0  0  0  0
   -0.8386   -3.9184    0.3705 H   0  0  0  0  0  0  0  0  0  0  0  0
    5.6628   -2.3332   -0.3119 H   0  0  0  0  0  0  0  0  0  0  0  0
    7.3838   -0.6020   -0.6075 H   0  0  0  0  0  0  0  0  0  0  0  0
   -3.6400    2.5213    0.4067 H   0  0  0  0  0  0  0  0  0  0  0  0
    6.7648    1.7837   -0.5703 H   0  0  0  0  0  0  0  0  0  0  0  0
   -1.9502   -1.0112   -1.4446 H   0  0  0  0  0  0  0  0  0  0  0  0
    4.9987    3.5460   -0.3551 H   0  0  0  0  0  0  0  0  0  0  0  0
    0.3326   -0.1632   -1.0466 H   0  0  0  0  0  0  0  0  0  0  0  0
    2.6567    4.1443   -0.0424 H   0  0  0  0  0  0  0  0  0  0  0  0
    0.8645    4.2938    1.3290 H   0  0  0  0  0  0  0  0  0  0  0  0
  1  9  1  0  0  0  0
  1 10  1  0  0  0  0
  2 11  1  0  0  0  0
  2 21  1  0  0  0  0
  3 16  1  0  0  0  0
  3 17  1  0  0  0  0
  3 18  1  0  0  0  0
  4 12  1  0  0  0  0
  4 52  1  0  0  0  0
  4 53  1  0  0  0  0
  5 19  1  0  0  0  0
  5 23  2  0  0  0  0
  6 23  1  0  0  0  0
  6 25  1  0  0  0  0
  6 33  1  0  0  0  0
  7 28  1  0  0  0  0
  7 33  2  0  0  0  0
  8  9  1  0  0  0  0
  8 10  1  0  0  0  0
  8 11  1  0  0  0  0
  8 13  1  0  0  0  0
  9 34  1  0  0  0  0
  9 35  1  0  0  0  0
 10 36  1  0  0  0  0
 10 37  1  0  0  0  0
 11 38  1  0  0  0  0
 11 39  1  0  0  0  0
 12 14  1  0  0  0  0
 12 15  1  0  0  0  0
 12 40  1  0  0  0  0
 13 45  1  0  0  0  0
 13 46  1  0  0  0  0
 13 47  1  0  0  0  0
 14 16  1  0  0  0  0
 14 41  1  0  0  0  0
 14 42  1  0  0  0  0
 15 17  1  0  0  0  0
 15 43  1  0  0  0  0
 15 44  1  0  0  0  0
 16 48  1  0  0  0  0
 16 49  1  0  0  0  0
 17 50  1  0  0  0  0
 17 51  1  0  0  0  0
 18 19  1  0  0  0  0
 18 20  2  0  0  0  0
 19 22  2  0  0  0  0
 20 24  1  0  0  0  0
 20 54  1  0  0  0  0
 21 26  2  0  0  0  0
 21 29  1  0  0  0  0
 22 27  1  0  0  0  0
 22 30  1  0  0  0  0
 23 32  1  0  0  0  0
 24 27  2  0  0  0  0
 24 55  1  0  0  0  0
 25 28  2  0  0  0  0
 25 31  1  0  0  0  0
 26 28  1  0  0  0  0
 26 56  1  0  0  0  0
 27 57  1  0  0  0  0
 29 31  2  0  0  0  0
 29 58  1  0  0  0  0
 30 32  2  0  0  0  0
 30 59  1  0  0  0  0
 31 60  1  0  0  0  0
 32 61  1  0  0  0  0
 33 62  1  0  0  0  0
M  END
> <PUBCHEM_COMPOUND_CID>
10366136

> <PUBCHEM_CONFORMER_RMSD>
1

> <PUBCHEM_CONFORMER_DIVERSEORDER>
1
72
58
37
11
22
38
62
56
14
79
57
2
61
27
70
13
45
51
68
18
67
40
50
35
73
41
49
64
52
10
28
65
55
36
59
76
63
17
69
80
44
47
30
42
5
16
32
78
39
25
26
19
43
81
9
23
77
60
53
29
71
6
21
31
7
46
82
74
33
8
4
15
48
75
20
34
66
3
24
54
12

> <PUBCHEM_MMFF94_PARTIAL_CHARGES>
39
1 -0.52
10 0.26
11 0.28
12 0.27
16 0.37
17 0.37
18 0.1
19 0.31
2 -0.36
20 -0.15
21 0.08
23 0.29
24 -0.15
25 -0.15
26 -0.15
27 -0.15
28 0.23
29 -0.15
3 -0.84
30 -0.15
31 -0.15
32 -0.15
33 0.04
4 -0.99
5 -0.62
52 0.36
53 0.36
54 0.15
55 0.15
56 0.15
57 0.15
58 0.15
59 0.15
6 0.33
60 0.15
61 0.15
62 0.15
7 -0.57
9 0.26

> <PUBCHEM_EFFECTIVE_ROTOR_COUNT>
7

> <PUBCHEM_PHARMACOPHORE_FEATURES>
13
1 1 acceptor
1 2 acceptor
1 3 cation
1 4 cation
1 4 donor
3 5 6 23 cation
3 6 7 33 cation
4 1 8 9 10 rings
5 6 7 25 28 33 rings
6 18 19 20 22 24 27 rings
6 21 25 26 28 29 31 rings
6 3 12 14 15 16 17 rings
6 5 19 22 23 30 32 rings

> <PUBCHEM_HEAVY_ATOM_COUNT>
33

> <PUBCHEM_ATOM_DEF_STEREO_COUNT>
0

> <PUBCHEM_ATOM_UDEF_STEREO_COUNT>
0

> <PUBCHEM_BOND_DEF_STEREO_COUNT>
0

> <PUBCHEM_BOND_UDEF_STEREO_COUNT>
0

> <PUBCHEM_ISOTOPIC_ATOM_COUNT>
0

> <PUBCHEM_COMPONENT_COUNT>
1

> <PUBCHEM_CACTVS_TAUTO_COUNT>
1

> <PUBCHEM_CONFORMER_ID>
009E2CB800000001

> <PUBCHEM_MMFF94_ENERGY>
109.6313

> <PUBCHEM_FEATURE_SELFOVERLAP>
66.159

> <PUBCHEM_SHAPE_FINGERPRINT>
10316853 100 18409449215375116298
10864689 126 18337118882034489751
1100329 8 18339074999567249302
11014199 57 17617655458617966866
11204353 107 18334860567093384011
11421498 54 17560807567871821242
11578080 2 17389094551744270532
117089 54 17983868782700499134
13402501 40 18334017219703397923
1361 2 18410575097711732315
13692114 37 18342167925918893922
14725015 67 18408878517469394474
15347590 135 17988630935201064344
15439362 3 18052253196131990032
15483637 11 17905327677630468363
15721738 202 18272371940597953146
15890870 6 18334860536817018478
15927050 60 17765995386852595116
17492 89 18125441908471483518
17852330 134 18265875992918388893
19315092 285 17315058975042808274
19319366 153 18336539499651790366
20028762 73 18343585127270895558
21133410 62 18189036669064269039
21133410 90 17346317172082976362
21197605 99 18265902525823485634
21267235 1 18343869905288687380
21344244 181 18202014209592623134
21585483 110 18335419106235951259
21792965 20 17559084663875809121
23516275 137 17273725176143644942
23522609 53 17984452804111926353
23559900 14 18188206637038972089
25222932 49 18343579629417072309
3882209 13 17324607043977757739
394071 54 18342469123274813835
4073 2 18189057654727702633
437795 51 18334013917189967287
439807 62 18334012778838913509
4461854 278 17989485208618001118
46194498 28 17749103439312590220
463206 1 18341607182739717470
484989 97 18261967352649297642
5309563 4 18340486673154085049
59755656 215 18187362142887709721

> <PUBCHEM_SHAPE_MULTIPOLES>
642.48
16.87
5.2
1.05
29.45
3.04
0.11
2.24
-2.52
-4.28
1.35
0.3
0.51
-0.25

> <PUBCHEM_SHAPE_SELFOVERLAP>
1424.772

> <PUBCHEM_SHAPE_VOLUME>
345.5

> <PUBCHEM_COORDINATE_TYPE>
2
5
10

$$$$
6918508
  -OEChem-11282412143D

 46 49  0     0  0  0  0  0  0999 V2000
   -5.4296    1.1770    2.2849 Cl  0  0  0  0  0  0  0  0  0  0  0  0
   -5.9658    3.0462    0.0471 F   0  0  0  0  0  0  0  0  0  0  0  0
    5.0031    2.6006    0.5684 N   0  0  0  0  0  0  0  0  0  0  0  0
    3.3451   -0.5066   -0.4289 N   0  0  0  0  0  0  0  0  0  0  0  0
    1.0489   -0.9848   -0.4097 N   0  0  0  0  0  0  0  0  0  0  0  0
    2.6575   -2.6535    0.2123 N   0  0  0  0  0  0  0  0  0  0  0  0
   -1.5841   -0.2381   -0.7985 N   0  0  0  0  0  0  0  0  0  0  0  0
   -0.6930   -4.0656    0.4703 N   0  0  0  0  0  0  0  0  0  0  0  0
   -2.3016   -2.3969   -0.1517 N   0  0  0  0  0  0  0  0  0  0  0  0
    3.1276    0.8559   -0.8759 C   0  0  0  0  0  0  0  0  0  0  0  0
    2.6989    1.7349    0.3007 C   0  0  0  0  0  0  0  0  0  0  0  0
    4.4013    1.4104   -1.5172 C   0  0  0  0  0  0  0  0  0  0  0  0
    3.8521    2.0165    1.2692 C   0  0  0  0  0  0  0  0  0  0  0  0
    5.4948    1.7024   -0.4846 C   0  0  0  0  0  0  0  0  0  0  0  0
    6.0736    2.9143    1.5147 C   0  0  0  0  0  0  0  0  0  0  0  0
    2.3221   -1.4089   -0.2023 C   0  0  0  0  0  0  0  0  0  0  0  0
    0.0610   -1.8721   -0.1839 C   0  0  0  0  0  0  0  0  0  0  0  0
    0.2948   -3.1784    0.2445 C   0  0  0  0  0  0  0  0  0  0  0  0
    1.6271   -3.4984    0.4221 C   0  0  0  0  0  0  0  0  0  0  0  0
   -1.2713   -1.5519   -0.3615 C   0  0  0  0  0  0  0  0  0  0  0  0
   -2.6938    0.5910   -0.5805 C   0  0  0  0  0  0  0  0  0  0  0  0
   -1.9451   -3.6227    0.2583 C   0  0  0  0  0  0  0  0  0  0  0  0
   -3.4296    0.4886    0.6049 C   0  0  0  0  0  0  0  0  0  0  0  0
   -3.0745    1.5280   -1.5470 C   0  0  0  0  0  0  0  0  0  0  0  0
   -4.5333    1.3137    0.8214 C   0  0  0  0  0  0  0  0  0  0  0  0
   -4.1784    2.3528   -1.3306 C   0  0  0  0  0  0  0  0  0  0  0  0
   -4.9077    2.2458   -0.1464 C   0  0  0  0  0  0  0  0  0  0  0  0
    2.3440    0.8660   -1.6443 H   0  0  0  0  0  0  0  0  0  0  0  0
    1.8656    1.2875    0.8543 H   0  0  0  0  0  0  0  0  0  0  0  0
    2.3301    2.6919   -0.0924 H   0  0  0  0  0  0  0  0  0  0  0  0
    4.1576    2.3407   -2.0472 H   0  0  0  0  0  0  0  0  0  0  0  0
    4.7881    0.7105   -2.2681 H   0  0  0  0  0  0  0  0  0  0  0  0
    3.4899    2.7175    2.0314 H   0  0  0  0  0  0  0  0  0  0  0  0
    4.1365    1.0927    1.7899 H   0  0  0  0  0  0  0  0  0  0  0  0
    5.8732    0.7653   -0.0567 H   0  0  0  0  0  0  0  0  0  0  0  0
    6.3343    2.1756   -1.0088 H   0  0  0  0  0  0  0  0  0  0  0  0
    4.2867   -0.8269   -0.2355 H   0  0  0  0  0  0  0  0  0  0  0  0
    5.7220    3.6238    2.2721 H   0  0  0  0  0  0  0  0  0  0  0  0
    6.9129    3.3956    1.0007 H   0  0  0  0  0  0  0  0  0  0  0  0
    6.4489    2.0209    2.0268 H   0  0  0  0  0  0  0  0  0  0  0  0
    1.9204   -4.4905    0.7541 H   0  0  0  0  0  0  0  0  0  0  0  0
   -0.9436    0.1028   -1.5104 H   0  0  0  0  0  0  0  0  0  0  0  0
   -2.7462   -4.3287    0.4374 H   0  0  0  0  0  0  0  0  0  0  0  0
   -3.1388   -0.2255    1.3723 H   0  0  0  0  0  0  0  0  0  0  0  0
   -2.5159    1.6222   -2.4750 H   0  0  0  0  0  0  0  0  0  0  0  0
   -4.4702    3.0786   -2.0840 H   0  0  0  0  0  0  0  0  0  0  0  0
  1 25  1  0  0  0  0
  2 27  1  0  0  0  0
  3 13  1  0  0  0  0
  3 14  1  0  0  0  0
  3 15  1  0  0  0  0
  4 10  1  0  0  0  0
  4 16  1  0  0  0  0
  4 37  1  0  0  0  0
  5 16  1  0  0  0  0
  5 17  2  0  0  0  0
  6 16  2  0  0  0  0
  6 19  1  0  0  0  0
  7 20  1  0  0  0  0
  7 21  1  0  0  0  0
  7 42  1  0  0  0  0
  8 18  1  0  0  0  0
  8 22  2  0  0  0  0
  9 20  2  0  0  0  0
  9 22  1  0  0  0  0
 10 11  1  0  0  0  0
 10 12  1  0  0  0  0
 10 28  1  0  0  0  0
 11 13  1  0  0  0  0
 11 29  1  0  0  0  0
 11 30  1  0  0  0  0
 12 14  1  0  0  0  0
 12 31  1  0  0  0  0
 12 32  1  0  0  0  0
 13 33  1  0  0  0  0
 13 34  1  0  0  0  0
 14 35  1  0  0  0  0
 14 36  1  0  0  0  0
 15 38  1  0  0  0  0
 15 39  1  0  0  0  0
 15 40  1  0  0  0  0
 17 18  1  0  0  0  0
 17 20  1  0  0  0  0
 18 19  2  0  0  0  0
 19 41  1  0  0  0  0
 21 23  2  0  0  0  0
 21 24  1  0  0  0  0
 22 43  1  0  0  0  0
 23 25  1  0  0  0  0
 23 44  1  0  0  0  0
 24 26  2  0  0  0  0
 24 45  1  0  0  0  0
 25 27  2  0  0  0  0
 26 27  1  0  0  0  0
 26 46  1  0  0  0  0
M  END
> <PUBCHEM_COMPOUND_CID>
6918508

> <PUBCHEM_CONFORMER_RMSD>
0.8

> <PUBCHEM_CONFORMER_DIVERSEORDER>
5
219
102
119
208
198
69
91
202
161
206
76
53
27
49
37
124
205
59
25
120
130
65
215
82
54
214
172
36
87
2
95
203
52
178
93
180
148
60
86
51
22
118
223
24
189
6
166
175
30
1
158
176
90
100
83
164
154
112
40
193
117
195
213
28
170
55
97
156
196
21
220
122
222
47
121
153
140
85
221
123
48
209
225
155
141
157
92
103
159
133
143
181
192
216
79
34
8
139
212
39
35
128
169
74
56
135
126
43
7
138
80
173
199
31
99
45
183
145
78
94
62
201
113
107
144
26
3
50
105
73
33
218
190
16
204
67
18
116
57
134
64
98
146
147
17
108
77
132
142
125
84
151
211
186
197
72
160
41
19
185
42
115
110
224
46
137
200
89
29
4
131
167
68
174
194
44
136
217
71
32
23
88
168
58
63
75
101
111
210
14
11
13
165
70
149
15
114
129
20
171
9
177
12
96
81
162
66
191
184
61
207
38
109
104
182
187
226
150
106
127
10
179
163
152
188

> <PUBCHEM_MMFF94_PARTIAL_CHARGES>
32
1 -0.18
10 0.37
13 0.27
14 0.27
15 0.27
16 0.72
17 0.31
18 0.31
19 0.16
2 -0.19
20 0.41
21 0.1
22 0.47
23 -0.15
24 -0.15
25 0.18
26 -0.15
27 0.19
3 -0.81
37 0.4
4 -0.87
41 0.15
42 0.4
43 0.15
44 0.15
45 0.15
46 0.15
5 -0.62
6 -0.62
7 -0.6
8 -0.62
9 -0.62

> <PUBCHEM_EFFECTIVE_ROTOR_COUNT>
5.2

> <PUBCHEM_PHARMACOPHORE_FEATURES>
11
1 3 cation
1 4 donor
1 5 acceptor
1 7 donor
3 7 9 20 cation
3 8 9 22 cation
4 4 5 6 16 cation
6 21 23 24 25 26 27 rings
6 3 10 11 12 13 14 rings
6 5 6 16 17 18 19 rings
6 8 9 17 18 20 22 rings

> <PUBCHEM_HEAVY_ATOM_COUNT>
27

> <PUBCHEM_ATOM_DEF_STEREO_COUNT>
0

> <PUBCHEM_ATOM_UDEF_STEREO_COUNT>
0

> <PUBCHEM_BOND_DEF_STEREO_COUNT>
0

> <PUBCHEM_BOND_UDEF_STEREO_COUNT>
0

> <PUBCHEM_ISOTOPIC_ATOM_COUNT>
0

> <PUBCHEM_COMPONENT_COUNT>
1

> <PUBCHEM_CACTVS_TAUTO_COUNT>
9

> <PUBCHEM_CONFORMER_ID>
0069916C00000005

> <PUBCHEM_MMFF94_ENERGY>
77.9503

> <PUBCHEM_FEATURE_SELFOVERLAP>
56.001

> <PUBCHEM_SHAPE_FINGERPRINT>
10074138 170 17896887753677480867
10165383 225 18336844038222935741
10937287 8 18410291402205436751
1100329 8 18337950074523622018
11059845 2 18192686026125372560
11135609 187 18336248091017182477
11135609 201 18271522108414570345
11720765 8 17700706064894994014
12107183 9 18189876713754954264
12390115 104 18340217382888699998
12422481 6 17822555137285623196
12788726 201 17684941593007802238
13140716 1 18335415734074889010
13726171 33 18050301559251485024
13878862 14 18045201757795809813
13965767 371 18041265604952157676
14178342 30 18189052169511354598
14251764 75 18341058475003890337
14848178 96 18413102844879315360
14950920 106 15719388477505470500
14955137 171 17829889837109673018
15081414 286 17981043007836485854
15119646 57 17417820590432227145
151778 21 18335705983690319285
1768 85 18338524023850903897
17913733 40 18338527365066350777
21033648 29 18408045108424105396
21279426 13 18272096028706372060
21401589 2 18341050808486740897
22122407 14 17983305820473910745
22182937 141 18341054136986064251
23558518 356 18187645868301585858
23559900 14 17315936360063535847
23845131 108 18334297548451543195
283562 15 18121207938354437799
3178227 256 18046921384954002858
3459 39 18269254898717656576
376196 1 18343299301740383310
444735 79 18043551580105811715
469060 322 17973176302860981523
474 4 18267863883206050359
5048184 11 18408604772742765476
508706 21 18196369440842445352
5104073 3 18335134337045646874
5252454 2 18409452491970933148
57124632 79 18264476313402678496
6371009 1 18119797251871147572
653340 110 18194117649587111142
7288768 16 18187081771554311067
7808743 9 18189626101870277276
7970288 3 8934998178831866320
9777508 108 18336833099068080139
9849439 229 18410564089631593649
9981440 41 18262793085728841810

> <PUBCHEM_SHAPE_MULTIPOLES>
515.38
13.27
5.2
1.4
2.26
4.58
-0.31
-18.51
-3.2
0.02
-0.93
-0.58
-1.14
1.14

> <PUBCHEM_SHAPE_SELFOVERLAP>
1109.5

> <PUBCHEM_SHAPE_VOLUME>
285.4

> <PUBCHEM_COORDINATE_TYPE>
2
5
10

$$$$
9808844
  -OEChem-11282412143D

 45 48  0     0  0  0  0  0  0999 V2000
    8.3690   -3.1963    0.2271 Cl  0  0  0  0  0  0  0  0  0  0  0  0
   -1.3709    0.5779   -0.4641 O   0  0  0  0  0  0  0  0  0  0  0  0
    0.0052    3.1471   -0.0424 O   0  0  0  0  0  0  0  0  0  0  0  0
   -6.0768   -0.9213    2.2946 O   0  0  0  0  0  0  0  0  0  0  0  0
    4.1534    0.9612    0.1938 N   0  0  0  0  0  0  0  0  0  0  0  0
    2.1448   -0.2846   -0.1609 N   0  0  0  0  0  0  0  0  0  0  0  0
    0.7684   -0.3782   -0.3251 N   0  0  0  0  0  0  0  0  0  0  0  0
   -6.1093   -0.5919   -1.2083 N   0  0  0  0  0  0  0  0  0  0  0  0
   -7.8534   -0.7536    0.8142 N   0  0  0  0  0  0  0  0  0  0  0  0
    1.9809    2.0585    0.0651 C   0  0  0  0  0  0  0  0  0  0  0  0
    0.6089    1.9283   -0.1024 C   0  0  0  0  0  0  0  0  0  0  0  0
    2.7584    0.9050    0.0320 C   0  0  0  0  0  0  0  0  0  0  0  0
   -0.0185    0.7161   -0.2995 C   0  0  0  0  0  0  0  0  0  0  0  0
   -1.8614   -0.7438   -0.6575 C   0  0  0  0  0  0  0  0  0  0  0  0
    2.2179    3.4470    0.2370 C   0  0  0  0  0  0  0  0  0  0  0  0
   -3.3486   -0.6911   -0.8494 C   0  0  0  0  0  0  0  0  0  0  0  0
    5.1584   -0.0301    0.2021 C   0  0  0  0  0  0  0  0  0  0  0  0
    0.9891    4.0619    0.1633 C   0  0  0  0  0  0  0  0  0  0  0  0
   -4.1892   -0.7817    0.2484 C   0  0  0  0  0  0  0  0  0  0  0  0
   -3.8725   -0.5517   -2.1246 C   0  0  0  0  0  0  0  0  0  0  0  0
   -5.5543   -0.7272    0.0170 C   0  0  0  0  0  0  0  0  0  0  0  0
    6.3131    0.1555    0.9608 C   0  0  0  0  0  0  0  0  0  0  0  0
    4.9946   -1.1935   -0.5487 C   0  0  0  0  0  0  0  0  0  0  0  0
   -5.2516   -0.5076   -2.2499 C   0  0  0  0  0  0  0  0  0  0  0  0
    7.3062   -0.8240    0.9688 C   0  0  0  0  0  0  0  0  0  0  0  0
    5.9876   -2.1731   -0.5406 C   0  0  0  0  0  0  0  0  0  0  0  0
    7.1433   -1.9883    0.2181 C   0  0  0  0  0  0  0  0  0  0  0  0
   -6.4894   -0.8160    1.1252 C   0  0  0  0  0  0  0  0  0  0  0  0
   -8.9035   -0.8047    1.8059 C   0  0  0  0  0  0  0  0  0  0  0  0
   -1.6216   -1.3692    0.2125 H   0  0  0  0  0  0  0  0  0  0  0  0
   -1.3931   -1.2004   -1.5395 H   0  0  0  0  0  0  0  0  0  0  0  0
    3.1653    3.9426    0.3950 H   0  0  0  0  0  0  0  0  0  0  0  0
    4.4956    1.8787    0.4657 H   0  0  0  0  0  0  0  0  0  0  0  0
    0.6631    5.0892    0.2342 H   0  0  0  0  0  0  0  0  0  0  0  0
   -3.7814   -0.8889    1.2482 H   0  0  0  0  0  0  0  0  0  0  0  0
   -3.2376   -0.4764   -3.0005 H   0  0  0  0  0  0  0  0  0  0  0  0
    6.4515    1.0579    1.5509 H   0  0  0  0  0  0  0  0  0  0  0  0
    4.1257   -1.3585   -1.1776 H   0  0  0  0  0  0  0  0  0  0  0  0
   -5.7177   -0.3987   -3.2237 H   0  0  0  0  0  0  0  0  0  0  0  0
    8.2016   -0.6666    1.5647 H   0  0  0  0  0  0  0  0  0  0  0  0
    5.8509   -3.0721   -1.1362 H   0  0  0  0  0  0  0  0  0  0  0  0
   -8.1299   -0.6868   -0.1612 H   0  0  0  0  0  0  0  0  0  0  0  0
   -9.2363   -1.8414    1.8988 H   0  0  0  0  0  0  0  0  0  0  0  0
   -9.7331   -0.1821    1.4631 H   0  0  0  0  0  0  0  0  0  0  0  0
   -8.5408   -0.4465    2.7724 H   0  0  0  0  0  0  0  0  0  0  0  0
  1 27  1  0  0  0  0
  2 13  1  0  0  0  0
  2 14  1  0  0  0  0
  3 11  1  0  0  0  0
  3 18  1  0  0  0  0
  4 28  2  0  0  0  0
  5 12  1  0  0  0  0
  5 17  1  0  0  0  0
  5 33  1  0  0  0  0
  6  7  1  0  0  0  0
  6 12  2  0  0  0  0
  7 13  2  0  0  0  0
  8 21  2  0  0  0  0
  8 24  1  0  0  0  0
  9 28  1  0  0  0  0
  9 29  1  0  0  0  0
  9 42  1  0  0  0  0
 10 11  2  0  0  0  0
 10 12  1  0  0  0  0
 10 15  1  0  0  0  0
 11 13  1  0  0  0  0
 14 16  1  0  0  0  0
 14 30  1  0  0  0  0
 14 31  1  0  0  0  0
 15 18  2  0  0  0  0
 15 32  1  0  0  0  0
 16 19  2  0  0  0  0
 16 20  1  0  0  0  0
 17 22  2  0  0  0  0
 17 23  1  0  0  0  0
 18 34  1  0  0  0  0
 19 21  1  0  0  0  0
 19 35  1  0  0  0  0
 20 24  2  0  0  0  0
 20 36  1  0  0  0  0
 21 28  1  0  0  0  0
 22 25  1  0  0  0  0
 22 37  1  0  0  0  0
 23 26  2  0  0  0  0
 23 38  1  0  0  0  0
 24 39  1  0  0  0  0
 25 27  2  0  0  0  0
 25 40  1  0  0  0  0
 26 27  1  0  0  0  0
 26 41  1  0  0  0  0
 29 43  1  0  0  0  0
 29 44  1  0  0  0  0
 29 45  1  0  0  0  0
M  END
> <PUBCHEM_COMPOUND_CID>
9808844

> <PUBCHEM_CONFORMER_RMSD>
1

> <PUBCHEM_CONFORMER_DIVERSEORDER>
1
215
48
269
162
287
116
119
175
88
157
303
125
42
209
124
168
55
297
238
109
216
286
141
316
64
245
77
59
144
189
158
39
107
310
194
85
276
315
273
298
292
244
69
121
231
218
255
66
320
307
15
166
21
282
308
182
232
211
243
217
7
70
145
179
263
237
143
84
183
63
26
295
251
160
230
226
227
225
289
54
293
47
265
72
277
249
98
90
201
188
322
304
280
86
299
155
53
229
240
9
184
152
266
140
105
253
224
25
213
285
236
212
314
200
99
46
12
191
205
305
82
83
172
96
137
264
242
256
174
50
132
100
271
278
223
130
103
146
148
104
312
80
260
118
181
267
177
20
203
193
275
31
123
129
92
187
111
97
274
234
306
75
258
122
302
3
279
43
161
208
259
199
131
192
319
164
309
81
257
115
228
204
222
51
318
235
61
173
74
106
87
147
94
5
171
49
247
113
29
170
45
270
300
272
52
167
16
76
28
196
67
127
41
135
159
150
32
176
294
163
142
301
283
30
14
133
128
202
95
248
185
58
313
186
149
288
317
241
24
11
321
44
139
195
219
284
101
78
296
73
291
165
91
37
210
35
252
65
268
126
112
8
114
33
117
36
290
220
233
34
93
180
214
38
262
169
198
18
110
108
17
221
261
154
136
246
13
2
281
207
102
250
254
71
27
134
178
56
311
120
138
68
239
40
10
156
206
6
153
79
62
190
89
151
22
19
4
23
60
57
197

> <PUBCHEM_MMFF94_PARTIAL_CHARGES>
39
1 -0.18
11 0.14
12 0.41
13 0.39
14 0.42
15 -0.15
16 -0.14
17 0.1
18 -0.01
19 -0.15
2 -0.36
20 -0.15
21 0.4
22 -0.15
23 -0.15
24 0.16
25 -0.15
26 -0.15
27 0.18
28 0.54
29 0.3
3 -0.28
32 0.15
33 0.4
34 0.15
35 0.15
36 0.15
37 0.15
38 0.15
39 0.15
4 -0.57
40 0.15
41 0.15
42 0.37
5 -0.6
6 -0.31
7 -0.31
8 -0.62
9 -0.73

> <PUBCHEM_EFFECTIVE_ROTOR_COUNT>
7

> <PUBCHEM_PHARMACOPHORE_FEATURES>
10
1 3 acceptor
1 4 acceptor
1 5 donor
1 8 acceptor
1 9 donor
3 5 6 12 cation
5 3 10 11 15 18 rings
6 17 22 23 25 26 27 rings
6 6 7 10 11 12 13 rings
6 8 16 19 20 21 24 rings

> <PUBCHEM_HEAVY_ATOM_COUNT>
29

> <PUBCHEM_ATOM_DEF_STEREO_COUNT>
0

> <PUBCHEM_ATOM_UDEF_STEREO_COUNT>
0

> <PUBCHEM_BOND_DEF_STEREO_COUNT>
0

> <PUBCHEM_BOND_UDEF_STEREO_COUNT>
0

> <PUBCHEM_ISOTOPIC_ATOM_COUNT>
0

> <PUBCHEM_COMPONENT_COUNT>
1

> <PUBCHEM_CACTVS_TAUTO_COUNT>
4

> <PUBCHEM_CONFORMER_ID>
0095ABCC00000001

> <PUBCHEM_MMFF94_ENERGY>
76.1738

> <PUBCHEM_FEATURE_SELFOVERLAP>
50.858

> <PUBCHEM_SHAPE_FINGERPRINT>
10 15 12175616296177953014
10411042 1 18411696557287379684
10533779 1 16485307041708149561
11331351 85 18131912641533054065
11456790 92 18059870480424821497
11476731 38 18334584556025931238
11646440 116 18410011031441379754
117089 54 17977662010304359122
12107183 9 18201442506131257343
12342043 65 17678468669597755147
12373685 5 14404899159877931877
12616971 3 18059859532178948517
12760667 363 18412256216868006430
13383668 254 15194129706081128146
13673619 4 17894630366116267069
13685833 64 18335138700336500762
13782708 43 17822571732775680003
14347424 109 18131633417609401704
14675019 173 17894915109801376717
14767858 380 11963388548424876479
15021287 119 18344145904134265389
15352257 5 17240201040958819683
15419008 145 18270971150859847849
15419008 47 17894905231138627925
1577012 14 17845939662264940437
17134984 74 17167859734988958418
19301679 30 18341337686938296594
20554085 129 14405189443721777047
20982279 24 18115322063975452762
21130935 74 18199744915627872499
21150785 3 13406794428030996826
21267235 1 18409730639038897294
21365058 113 17385445444445320053
21792961 116 18115579357641889943
2303208 19 17749105634266782413
23559900 14 18267571575862642849
23569943 247 18271235015600706206
23845131 108 17194052098495167144
24771293 8 17916854842357483896
249057 25 17488459844967709373
3004659 81 18113329800760975446
3103668 31 18118109291117516061
3178227 256 18408326609170236491
3383291 50 18334573551065205035
34797466 226 16515969280262185940
4403749 210 10807634714776550709
45377200 153 15285937917809912137
504579 68 12829484870563951399
5104073 3 17987503820693208328
5219985 9 18272930514591719752
5265222 85 16660652898553791938
5283384 27 11095880462684565250
5470011 282 17675929781697092662
57527293 21 17346021360779744436
58083652 198 18341319054964452388
6058803 2 17484793063408655805
6327066 14 9511167556927822632
6712543 237 15841546354297816438
8863177 126 17896042212050356043
9980921 7 10303228241297501394
999808 66 18187366532397397483

> <PUBCHEM_SHAPE_MULTIPOLES>
556.16
25.46
3.3
1.47
9.47
3.7
0.09
-24.69
-9.71
-6.08
-0.22
3.95
-0.62
0.69

> <PUBCHEM_SHAPE_SELFOVERLAP>
1210.06

> <PUBCHEM_SHAPE_VOLUME>
303.1

> <PUBCHEM_COORDINATE_TYPE>
2
5
10

$$$$
16041424
  -OEChem-11282412143D

 53 56  0     0  0  0  0  0  0999 V2000
   -3.5756    0.4826   -0.0212 N   0  0  0  0  0  0  0  0  0  0  0  0
   -6.2779    1.3983   -0.1581 N   0  0  0  0  0  0  0  0  0  0  0  0
   -1.2630    1.1084   -0.0094 N   0  0  0  0  0  0  0  0  0  0  0  0
    0.4469   -0.5895   -0.0321 N   0  0  0  0  0  0  0  0  0  0  0  0
   -0.1679   -2.8896   -0.0721 N   0  0  0  0  0  0  0  0  0  0  0  0
    2.2288   -2.9198    0.0439 N   0  0  0  0  0  0  0  0  0  0  0  0
    3.0833   -3.9533    0.1326 N   0  0  0  0  0  0  0  0  0  0  0  0
   -4.4395    0.0582   -1.1270 C   0  0  0  0  0  0  0  0  0  0  0  0
   -3.9643    1.7320    0.6454 C   0  0  0  0  0  0  0  0  0  0  0  0
   -5.9097    0.0851   -0.7012 C   0  0  0  0  0  0  0  0  0  0  0  0
   -5.4492    1.7039    1.0146 C   0  0  0  0  0  0  0  0  0  0  0  0
   -2.2204    0.1340   -0.0259 C   0  0  0  0  0  0  0  0  0  0  0  0
   -7.6968    1.4280    0.1946 C   0  0  0  0  0  0  0  0  0  0  0  0
   -1.8763   -1.2187   -0.0457 C   0  0  0  0  0  0  0  0  0  0  0  0
   -0.5297   -1.5203   -0.0481 C   0  0  0  0  0  0  0  0  0  0  0  0
    0.0158    0.6861   -0.0133 C   0  0  0  0  0  0  0  0  0  0  0  0
    1.0391    1.7167    0.0024 C   0  0  0  0  0  0  0  0  0  0  0  0
    1.0423   -3.5202    0.0146 C   0  0  0  0  0  0  0  0  0  0  0  0
    1.1245   -4.9189    0.0831 C   0  0  0  0  0  0  0  0  0  0  0  0
    2.3752    1.4930   -0.0354 C   0  0  0  0  0  0  0  0  0  0  0  0
    2.4724   -5.1726    0.1593 C   0  0  0  0  0  0  0  0  0  0  0  0
    3.4134    2.5388   -0.0389 C   0  0  0  0  0  0  0  0  0  0  0  0
    3.2331   -6.4291    0.2538 C   0  0  0  0  0  0  0  0  0  0  0  0
    3.0964    3.8109    0.4090 C   0  0  0  0  0  0  0  0  0  0  0  0
    4.6863    2.2296   -0.4903 C   0  0  0  0  0  0  0  0  0  0  0  0
    4.0789    4.8011    0.4054 C   0  0  0  0  0  0  0  0  0  0  0  0
    5.6688    3.2198   -0.4938 C   0  0  0  0  0  0  0  0  0  0  0  0
    5.3651    4.5055   -0.0460 C   0  0  0  0  0  0  0  0  0  0  0  0
   -4.2819    0.7259   -1.9838 H   0  0  0  0  0  0  0  0  0  0  0  0
   -4.1982   -0.9572   -1.4612 H   0  0  0  0  0  0  0  0  0  0  0  0
   -3.3842    1.8736    1.5659 H   0  0  0  0  0  0  0  0  0  0  0  0
   -3.7541    2.5824   -0.0159 H   0  0  0  0  0  0  0  0  0  0  0  0
   -6.0915   -0.7059    0.0390 H   0  0  0  0  0  0  0  0  0  0  0  0
   -6.5248   -0.1427   -1.5802 H   0  0  0  0  0  0  0  0  0  0  0  0
   -5.6158    0.9648    1.8100 H   0  0  0  0  0  0  0  0  0  0  0  0
   -5.7200    2.6862    1.4203 H   0  0  0  0  0  0  0  0  0  0  0  0
   -7.9796    2.4193    0.5660 H   0  0  0  0  0  0  0  0  0  0  0  0
   -8.3162    1.2357   -0.6884 H   0  0  0  0  0  0  0  0  0  0  0  0
   -7.9501    0.6871    0.9617 H   0  0  0  0  0  0  0  0  0  0  0  0
   -2.6343   -1.9950   -0.0453 H   0  0  0  0  0  0  0  0  0  0  0  0
   -0.9917   -3.4872   -0.1287 H   0  0  0  0  0  0  0  0  0  0  0  0
    0.6459    2.7291    0.0178 H   0  0  0  0  0  0  0  0  0  0  0  0
    0.3271   -5.6487    0.0787 H   0  0  0  0  0  0  0  0  0  0  0  0
    2.7528    0.4736   -0.0806 H   0  0  0  0  0  0  0  0  0  0  0  0
    4.0749   -3.7523    0.1710 H   0  0  0  0  0  0  0  0  0  0  0  0
    3.9124   -6.5362   -0.5980 H   0  0  0  0  0  0  0  0  0  0  0  0
    2.5642   -7.2958    0.2614 H   0  0  0  0  0  0  0  0  0  0  0  0
    3.8270   -6.4547    1.1731 H   0  0  0  0  0  0  0  0  0  0  0  0
    2.1164    4.0801    0.7898 H   0  0  0  0  0  0  0  0  0  0  0  0
    4.9383    1.2333   -0.8437 H   0  0  0  0  0  0  0  0  0  0  0  0
    3.8445    5.8010    0.7588 H   0  0  0  0  0  0  0  0  0  0  0  0
    6.6704    2.9899   -0.8453 H   0  0  0  0  0  0  0  0  0  0  0  0
    6.1305    5.2760   -0.0476 H   0  0  0  0  0  0  0  0  0  0  0  0
  1  8  1  0  0  0  0
  1  9  1  0  0  0  0
  1 12  1  0  0  0  0
  2 10  1  0  0  0  0
  2 11  1  0  0  0  0
  2 13  1  0  0  0  0
  3 12  2  0  0  0  0
  3 16  1  0  0  0  0
  4 15  1  0  0  0  0
  4 16  2  0  0  0  0
  5 15  1  0  0  0  0
  5 18  1  0  0  0  0
  5 41  1  0  0  0  0
  6  7  1  0  0  0  0
  6 18  2  0  0  0  0
  7 21  1  0  0  0  0
  7 45  1  0  0  0  0
  8 10  1  0  0  0  0
  8 29  1  0  0  0  0
  8 30  1  0  0  0  0
  9 11  1  0  0  0  0
  9 31  1  0  0  0  0
  9 32  1  0  0  0  0
 10 33  1  0  0  0  0
 10 34  1  0  0  0  0
 11 35  1  0  0  0  0
 11 36  1  0  0  0  0
 12 14  1  0  0  0  0
 13 37  1  0  0  0  0
 13 38  1  0  0  0  0
 13 39  1  0  0  0  0
 14 15  2  0  0  0  0
 14 40  1  0  0  0  0
 16 17  1  0  0  0  0
 17 20  2  0  0  0  0
 17 42  1  0  0  0  0
 18 19  1  0  0  0  0
 19 21  2  0  0  0  0
 19 43  1  0  0  0  0
 20 22  1  0  0  0  0
 20 44  1  0  0  0  0
 21 23  1  0  0  0  0
 22 24  2  0  0  0  0
 22 25  1  0  0  0  0
 23 46  1  0  0  0  0
 23 47  1  0  0  0  0
 23 48  1  0  0  0  0
 24 26  1  0  0  0  0
 24 49  1  0  0  0  0
 25 27  2  0  0  0  0
 25 50  1  0  0  0  0
 26 28  2  0  0  0  0
 26 51  1  0  0  0  0
 27 28  1  0  0  0  0
 27 52  1  0  0  0  0
 28 53  1  0  0  0  0
M  END
> <PUBCHEM_COMPOUND_CID>
16041424

> <PUBCHEM_CONFORMER_RMSD>
0.8

> <PUBCHEM_CONFORMER_DIVERSEORDER>
1
101
16
72
19
55
111
129
15
20
104
63
18
130
70
32
25
4
37
105
13
113
49
109
46
112
61
71
10
47
11
44
5
75
95
128
110
79
50
85
56
52
97
3
69
6
27
64
21
77
24
2
94
87
57
80
118
73
43
66
117
126
9
106
17
122
31
86
30
12
62
96
107
68
98
92
99
33
115
119
84
53
121
81
78
102
34
14
58
65
8
76
7
51
91
124
45
23
89
83
48
127
114
103
39
35
88
74
93
82
125
41
22
108
100
38
36
29
116
54
42
26
28
90
67
120
123
60
59
40

> <PUBCHEM_MMFF94_PARTIAL_CHARGES>
39
1 -0.84
10 0.27
11 0.27
12 0.41
13 0.27
14 -0.15
15 0.41
16 0.65
17 -0.18
18 0.37
19 -0.15
2 -0.81
20 -0.18
21 -0.33
22 0.03
23 0.18
24 -0.15
25 -0.15
26 -0.15
27 -0.15
28 -0.15
3 -0.62
4 -0.62
40 0.15
41 0.4
42 0.15
43 0.15
44 0.15
45 0.27
49 0.15
5 -0.58
50 0.15
51 0.15
52 0.15
53 0.15
6 -0.71
7 0.3
8 0.37
9 0.37

> <PUBCHEM_EFFECTIVE_ROTOR_COUNT>
6.2

> <PUBCHEM_PHARMACOPHORE_FEATURES>
10
1 2 cation
1 5 donor
1 7 donor
3 1 3 12 cation
3 3 4 16 cation
3 5 6 18 cation
5 6 7 18 19 21 rings
6 1 2 8 9 10 11 rings
6 22 24 25 26 27 28 rings
6 3 4 12 14 15 16 rings

> <PUBCHEM_HEAVY_ATOM_COUNT>
28

> <PUBCHEM_ATOM_DEF_STEREO_COUNT>
0

> <PUBCHEM_ATOM_UDEF_STEREO_COUNT>
0

> <PUBCHEM_BOND_DEF_STEREO_COUNT>
1

> <PUBCHEM_BOND_UDEF_STEREO_COUNT>
0

> <PUBCHEM_ISOTOPIC_ATOM_COUNT>
0

> <PUBCHEM_COMPONENT_COUNT>
1

> <PUBCHEM_CACTVS_TAUTO_COUNT>
11

> <PUBCHEM_CONFORMER_ID>
00F4C5D000000001

> <PUBCHEM_MMFF94_ENERGY>
80.255

> <PUBCHEM_FEATURE_SELFOVERLAP>
50.875

> <PUBCHEM_SHAPE_FINGERPRINT>
10050765 1 18411139113824708743
10411042 1 17834114143439902722
10675989 125 18341618113922492128
10721379 63 18269565952653631884
107951 10 18197784512418066118
10937287 8 18266457792470109386
11056379 131 17545330030672323796
11297750 10 17753891615156813189
11763715 3 17474411079303342278
12107183 9 18263910203250477488
12293681 160 17917156112237498081
12977781 61 17969245420253971851
13248334 5 18338516331237617426
13540713 4 18113628855207887323
13540713 5 18130221555101916229
13590594 115 17834682591325496593
13785724 45 17909552753002333606
138480 1 18194401079058933998
13955234 65 18337394846688725395
14790565 3 18338797943615923098
14849402 71 18267872687735857667
15042514 8 17256531245310452850
15230672 131 18264212586375690204
15400415 2 18266176330305266100
15439362 3 18408884001973981877
15664445 248 18056492651180762094
15927050 60 18341332305054988735
15980000 95 17907583528109458118
16087824 20 16825588086943140709
167882 2 18410011005402472539
17913733 40 18266198264982029889
17980427 26 18341323448636473135
19319366 153 18343582971118353909
20238998 120 17761771762951977941
20505436 4 17751070522103234344
21033648 144 18041546057716420837
21033648 29 18125998514505845960
21049683 271 18117010883247952574
21360443 120 18409453604383397420
21796203 349 17691726335834736547
21927370 108 17691139140442912443
22311459 1 18337953390243285354
23559900 14 18265327306018405211
244849 19 17897188887119892875
249999 5 18410294683765887067
283562 15 17980759656259558831
3627633 1 17329993491100998334
4058900 60 18340216287793729080
4409770 3 17687738759094902871
4516262 110 18410004460542876533
5171179 24 18046902685003856765
5385378 56 18410015425129879825
563151 97 18267578186482067127
57816332 4 18264497178453925603
6058803 2 18201996578819775045
6371380 46 18340214085340507492
6376802 90 17908431604152649604
6697151 62 17757808071533048399
6700243 42 16826197774872719908
6898599 12 17758965114032145876
77188 2 17978228253710634238
9981440 41 18264211498804368203

> <PUBCHEM_SHAPE_MULTIPOLES>
541.36
14.53
9.29
0.76
19.54
16.86
-0.02
-21.36
-0.65
-19.13
1.25
0.44
-0.21
-0.91

> <PUBCHEM_SHAPE_SELFOVERLAP>
1161.883

> <PUBCHEM_SHAPE_VOLUME>
291.4

> <PUBCHEM_COORDINATE_TYPE>
2
5
10

$$$$
6419747
  -OEChem-11282412143D

 40 43  0     0  0  0  0  0  0999 V2000
    5.2264   -1.3234    0.4010 S   0  0  0  0  0  0  0  0  0  0  0  0
   -1.4060    2.2352   -0.4111 O   0  0  0  0  0  0  0  0  0  0  0  0
    6.4807   -0.6086    0.5863 O   0  0  0  0  0  0  0  0  0  0  0  0
    4.7367   -2.2110    1.4457 O   0  0  0  0  0  0  0  0  0  0  0  0
   -3.9972    0.1032    1.5820 N   0  0  0  0  0  0  0  0  0  0  0  0
    0.9137    2.5049   -0.7680 N   0  0  0  0  0  0  0  0  0  0  0  0
    5.2964   -2.1908   -1.0689 N   0  0  0  0  0  0  0  0  0  0  0  0
    1.6820    0.4814    0.0088 C   0  0  0  0  0  0  0  0  0  0  0  0
    0.2299    0.5204    0.1445 C   0  0  0  0  0  0  0  0  0  0  0  0
   -2.0523   -0.3161    0.7380 C   0  0  0  0  0  0  0  0  0  0  0  0
   -2.9679   -0.6755   -0.2377 C   0  0  0  0  0  0  0  0  0  0  0  0
    2.0448    1.7104   -0.5499 C   0  0  0  0  0  0  0  0  0  0  0  0
   -4.2184   -0.4000    0.3198 C   0  0  0  0  0  0  0  0  0  0  0  0
   -0.5855   -0.4188    0.6278 C   0  0  0  0  0  0  0  0  0  0  0  0
   -2.6539    0.1551    1.8409 C   0  0  0  0  0  0  0  0  0  0  0  0
    2.6409   -0.4674    0.3099 C   0  0  0  0  0  0  0  0  0  0  0  0
   -0.2533    1.8466   -0.3669 C   0  0  0  0  0  0  0  0  0  0  0  0
    3.9773   -0.1559    0.0372 C   0  0  0  0  0  0  0  0  0  0  0  0
    3.3576    2.0383   -0.8267 C   0  0  0  0  0  0  0  0  0  0  0  0
   -2.9088   -1.2066   -1.5415 C   0  0  0  0  0  0  0  0  0  0  0  0
    4.3320    1.0849   -0.5255 C   0  0  0  0  0  0  0  0  0  0  0  0
   -5.4175   -0.6298   -0.3642 C   0  0  0  0  0  0  0  0  0  0  0  0
   -5.0234    0.5225    2.5120 C   0  0  0  0  0  0  0  0  0  0  0  0
   -4.1001   -1.4418   -2.2376 C   0  0  0  0  0  0  0  0  0  0  0  0
   -5.3341   -1.1571   -1.6561 C   0  0  0  0  0  0  0  0  0  0  0  0
   -0.1657   -1.3578    0.9823 H   0  0  0  0  0  0  0  0  0  0  0  0
   -2.2747    0.5237    2.7852 H   0  0  0  0  0  0  0  0  0  0  0  0
    2.3563   -1.4226    0.7374 H   0  0  0  0  0  0  0  0  0  0  0  0
    0.9518    3.4357   -1.1665 H   0  0  0  0  0  0  0  0  0  0  0  0
    3.6288    2.9934   -1.2615 H   0  0  0  0  0  0  0  0  0  0  0  0
   -1.9552   -1.4337   -2.0097 H   0  0  0  0  0  0  0  0  0  0  0  0
    5.3707    1.3207   -0.7425 H   0  0  0  0  0  0  0  0  0  0  0  0
   -6.3813   -0.4103    0.0828 H   0  0  0  0  0  0  0  0  0  0  0  0
   -5.6650   -0.3356    2.7275 H   0  0  0  0  0  0  0  0  0  0  0  0
   -4.5594    0.8786    3.4353 H   0  0  0  0  0  0  0  0  0  0  0  0
   -5.5972    1.3304    2.0510 H   0  0  0  0  0  0  0  0  0  0  0  0
   -4.0606   -1.8512   -3.2436 H   0  0  0  0  0  0  0  0  0  0  0  0
   -6.2469   -1.3475   -2.2148 H   0  0  0  0  0  0  0  0  0  0  0  0
    6.1245   -2.0578   -1.6621 H   0  0  0  0  0  0  0  0  0  0  0  0
    4.9313   -3.1510   -1.0740 H   0  0  0  0  0  0  0  0  0  0  0  0
  1  3  2  0  0  0  0
  1  4  2  0  0  0  0
  1  7  1  0  0  0  0
  1 18  1  0  0  0  0
  2 17  2  0  0  0  0
  5 13  1  0  0  0  0
  5 15  1  0  0  0  0
  5 23  1  0  0  0  0
  6 12  1  0  0  0  0
  6 17  1  0  0  0  0
  6 29  1  0  0  0  0
  7 39  1  0  0  0  0
  7 40  1  0  0  0  0
  8  9  1  0  0  0  0
  8 12  2  0  0  0  0
  8 16  1  0  0  0  0
  9 14  2  0  0  0  0
  9 17  1  0  0  0  0
 10 11  1  0  0  0  0
 10 14  1  0  0  0  0
 10 15  2  0  0  0  0
 11 13  1  0  0  0  0
 11 20  2  0  0  0  0
 12 19  1  0  0  0  0
 13 22  2  0  0  0  0
 14 26  1  0  0  0  0
 15 27  1  0  0  0  0
 16 18  2  0  0  0  0
 16 28  1  0  0  0  0
 18 21  1  0  0  0  0
 19 21  2  0  0  0  0
 19 30  1  0  0  0  0
 20 24  1  0  0  0  0
 20 31  1  0  0  0  0
 21 32  1  0  0  0  0
 22 25  1  0  0  0  0
 22 33  1  0  0  0  0
 23 34  1  0  0  0  0
 23 35  1  0  0  0  0
 23 36  1  0  0  0  0
 24 25  2  0  0  0  0
 24 37  1  0  0  0  0
 25 38  1  0  0  0  0
M  END
> <PUBCHEM_COMPOUND_CID>
6419747

> <PUBCHEM_CONFORMER_RMSD>
0.6

> <PUBCHEM_CONFORMER_DIVERSEORDER>
1
6
3
2
5
4

> <PUBCHEM_MMFF94_PARTIAL_CHARGES>
36
1 1.45
10 -0.05
12 0.12
13 -0.15
14 -0.1
15 -0.3
16 -0.15
17 0.62
18 -0.01
19 -0.15
2 -0.57
20 -0.15
21 -0.15
22 -0.15
23 0.26
24 -0.15
25 -0.15
26 0.15
27 0.15
28 0.15
29 0.37
3 -0.65
30 0.15
31 0.15
32 0.15
33 0.15
37 0.15
38 0.15
39 0.42
4 -0.65
40 0.42
5 0.05
6 -0.55
7 -0.98
8 0.03
9 -0.01

> <PUBCHEM_EFFECTIVE_ROTOR_COUNT>
2.2

> <PUBCHEM_PHARMACOPHORE_FEATURES>
10
1 2 acceptor
1 3 acceptor
1 4 acceptor
1 5 cation
1 6 donor
1 7 donor
5 5 10 11 13 15 rings
5 6 8 9 12 17 rings
6 11 13 20 22 24 25 rings
6 8 12 16 18 19 21 rings

> <PUBCHEM_HEAVY_ATOM_COUNT>
25

> <PUBCHEM_ATOM_DEF_STEREO_COUNT>
0

> <PUBCHEM_ATOM_UDEF_STEREO_COUNT>
0

> <PUBCHEM_BOND_DEF_STEREO_COUNT>
1

> <PUBCHEM_BOND_UDEF_STEREO_COUNT>
0

> <PUBCHEM_ISOTOPIC_ATOM_COUNT>
0

> <PUBCHEM_COMPONENT_COUNT>
1

> <PUBCHEM_CACTVS_TAUTO_COUNT>
2

> <PUBCHEM_CONFORMER_ID>
0061F52300000001

> <PUBCHEM_MMFF94_ENERGY>
58.6477

> <PUBCHEM_FEATURE_SELFOVERLAP>
50.946

> <PUBCHEM_SHAPE_FINGERPRINT>
10165383 225 16008741365646483949
10319926 262 15984833592784917630
10369192 42 16158238898609683948
10622 236 18056739139079898007
10670039 82 14490735832975823919
10912923 1 17988650734604061288
11135926 11 18042416901243845116
11315181 36 17703788149867753523
11578080 2 17987210357904625097
12236239 1 18201441411030576491
12403259 118 15339117948400205121
12403259 415 16660647383651772665
12422481 6 17916593024744422030
12523318 42 16415474978356212079
12553582 1 18260549996309091426
12596602 18 16917065556155990074
12616971 3 18341341045249372297
12623949 98 16883614164484397371
12633257 1 17561372772308721401
12760667 363 18261108526762121098
13134695 92 18335139855335128829
13544653 18 18260550030447205476
13673619 4 16371309804176916361
13692114 37 17480594750152435665
13760787 5 18334582372943146452
13782708 43 16878514552271403307
14294032 229 17488765389342333865
14739800 52 16843874485599019480
14840074 17 18412545388421473342
15081414 286 17749963283328158852
15183329 4 17530953662208184445
15188451 53 17275094055340240375
15788980 27 18408322194006932381
15806764 133 16515688900570668477
17349148 13 18130510815873289159
17357779 13 17967809453092418964
17857418 61 18272083907475232214
1813 80 18338246985443398700
18222031 100 18412260619478678726
18681886 176 16629694001659881620
19489759 90 16558753412503040731
19784866 140 17822005389328154729
200 152 18409726274582153637
20028762 73 18201433680037599734
20511986 3 18059562620382725109
20645477 70 18113615724701403378
21033648 29 17095795642005913685
21065201 7 16343158981631372989
21267235 1 18115038424576810682
21304303 282 16915385386730839993
21728266 224 17275382123144601623
21792961 116 16732700519999048218
22061861 79 17822006523231474494
221357 26 17967800666026986605
22393880 68 16950275247625109931
2297311 6 14996289136944890019
2303208 19 16950292822736559131
23175994 123 17676209100072465877
23402539 116 18409728452293986057
23522609 53 18127722437717752296
23536364 44 17677878063764625405
23557571 272 15482129244540870441
23559900 14 17676487293673160608
23569914 152 17177672720740935215
25147074 1 18337121094153533156
2838139 119 7853571318751975294
312425 54 17417810596138755450
314194 84 18335421262214309098
3298306 158 16732692852897200874
34797466 226 15864078709940496647
3729539 64 17386555869679998747
4098825 35 14706928437144120370
46194498 28 15792592888014052790
463206 1 18411696629679474462
5104073 3 18129670810501188451
5281201 14 16732988668948722500
559249 180 18060138717880074415
573450 72 17632301185327183787
57527295 17 17531785988801201027
602551 16 16630249202768802765
67856867 119 17559667524284569720
7064713 232 17489591138530594766

> <PUBCHEM_SHAPE_MULTIPOLES>
485.79
14.17
2.15
1.77
5.92
0.29
0.43
-7.3
1.15
1.85
-0.78
-2.46
-0.2
-2.88

> <PUBCHEM_SHAPE_SELFOVERLAP>
1079.578

> <PUBCHEM_SHAPE_VOLUME>
263.8

> <PUBCHEM_COORDINATE_TYPE>
2
5
10

$$$$
11601743
  -OEChem-11282412143D

 34 37  0     0  0  0  0  0  0999 V2000
    0.0124    3.0765    0.0104 O   0  0  0  0  0  0  0  0  0  0  0  0
    6.7512   -0.9966   -0.3779 O   0  0  0  0  0  0  0  0  0  0  0  0
   -6.7471   -0.9951    0.3796 O   0  0  0  0  0  0  0  0  0  0  0  0
    1.4290   -0.1018    0.5874 N   0  0  0  0  0  0  0  0  0  0  0  0
   -1.4249   -0.1035   -0.5884 N   0  0  0  0  0  0  0  0  0  0  0  0
    1.2513    1.1292    0.0153 C   0  0  0  0  0  0  0  0  0  0  0  0
   -1.3025    1.0985   -0.0207 C   0  0  0  0  0  0  0  0  0  0  0  0
    3.4083    0.5051   -0.2436 C   0  0  0  0  0  0  0  0  0  0  0  0
   -3.4042    0.5061    0.2408 C   0  0  0  0  0  0  0  0  0  0  0  0
    2.7367   -0.5077    0.4444 C   0  0  0  0  0  0  0  0  0  0  0  0
   -2.7326   -0.5088   -0.4441 C   0  0  0  0  0  0  0  0  0  0  0  0
    0.0021    1.8221   -0.0034 C   0  0  0  0  0  0  0  0  0  0  0  0
    2.4586    1.5313   -0.5079 C   0  0  0  0  0  0  0  0  0  0  0  0
   -2.4545    1.5330    0.5019 C   0  0  0  0  0  0  0  0  0  0  0  0
    4.7792    0.3402   -0.5246 C   0  0  0  0  0  0  0  0  0  0  0  0
   -4.7750    0.3421    0.5222 C   0  0  0  0  0  0  0  0  0  0  0  0
    3.3700   -1.6819    0.8668 C   0  0  0  0  0  0  0  0  0  0  0  0
   -3.3660   -1.6842   -0.8632 C   0  0  0  0  0  0  0  0  0  0  0  0
    5.4259   -0.8289   -0.1077 C   0  0  0  0  0  0  0  0  0  0  0  0
   -5.4218   -0.8283    0.1089 C   0  0  0  0  0  0  0  0  0  0  0  0
    4.7301   -1.8231    0.5771 C   0  0  0  0  0  0  0  0  0  0  0  0
   -4.7261   -1.8245   -0.5731 C   0  0  0  0  0  0  0  0  0  0  0  0
    2.6452    2.4620   -1.0273 H   0  0  0  0  0  0  0  0  0  0  0  0
   -2.6360    2.4661    1.0175 H   0  0  0  0  0  0  0  0  0  0  0  0
    0.7142   -0.6370    1.0610 H   0  0  0  0  0  0  0  0  0  0  0  0
   -0.7057   -0.6359   -1.0600 H   0  0  0  0  0  0  0  0  0  0  0  0
    5.3217    1.1152   -1.0592 H   0  0  0  0  0  0  0  0  0  0  0  0
   -5.3175    1.1187    1.0545 H   0  0  0  0  0  0  0  0  0  0  0  0
    2.8290   -2.4565    1.3998 H   0  0  0  0  0  0  0  0  0  0  0  0
   -2.8250   -2.4605   -1.3939 H   0  0  0  0  0  0  0  0  0  0  0  0
    5.2463   -2.7264    0.8940 H   0  0  0  0  0  0  0  0  0  0  0  0
   -5.2424   -2.7287   -0.8873 H   0  0  0  0  0  0  0  0  0  0  0  0
    7.0766   -0.2155   -0.8577 H   0  0  0  0  0  0  0  0  0  0  0  0
   -7.0725   -0.2126    0.8569 H   0  0  0  0  0  0  0  0  0  0  0  0
  1 12  2  0  0  0  0
  2 19  1  0  0  0  0
  2 33  1  0  0  0  0
  3 20  1  0  0  0  0
  3 34  1  0  0  0  0
  4  6  1  0  0  0  0
  4 10  1  0  0  0  0
  4 25  1  0  0  0  0
  5  7  1  0  0  0  0
  5 11  1  0  0  0  0
  5 26  1  0  0  0  0
  6 12  1  0  0  0  0
  6 13  2  0  0  0  0
  7 12  1  0  0  0  0
  7 14  2  0  0  0  0
  8 10  2  0  0  0  0
  8 13  1  0  0  0  0
  8 15  1  0  0  0  0
  9 11  2  0  0  0  0
  9 14  1  0  0  0  0
  9 16  1  0  0  0  0
 10 17  1  0  0  0  0
 11 18  1  0  0  0  0
 13 23  1  0  0  0  0
 14 24  1  0  0  0  0
 15 19  2  0  0  0  0
 15 27  1  0  0  0  0
 16 20  2  0  0  0  0
 16 28  1  0  0  0  0
 17 21  2  0  0  0  0
 17 29  1  0  0  0  0
 18 22  2  0  0  0  0
 18 30  1  0  0  0  0
 19 21  1  0  0  0  0
 20 22  1  0  0  0  0
 21 31  1  0  0  0  0
 22 32  1  0  0  0  0
M  END
> <PUBCHEM_COMPOUND_CID>
11601743

> <PUBCHEM_CONFORMER_RMSD>
0.6

> <PUBCHEM_CONFORMER_DIVERSEORDER>
1
6
15
5
14
2
12
13
3
4
10
7
11
8
9

> <PUBCHEM_MMFF94_PARTIAL_CHARGES>
32
1 -0.57
10 -0.15
11 -0.15
12 0.74
13 -0.15
14 -0.15
15 -0.15
16 -0.15
17 -0.15
18 -0.15
19 0.08
2 -0.53
20 0.08
21 -0.15
22 -0.15
23 0.15
24 0.15
25 0.27
26 0.27
27 0.15
28 0.15
29 0.15
3 -0.53
30 0.15
31 0.15
32 0.15
33 0.45
34 0.45
4 0.03
5 0.03
6 -0.24
7 -0.24

> <PUBCHEM_EFFECTIVE_ROTOR_COUNT>
2

> <PUBCHEM_PHARMACOPHORE_FEATURES>
11
1 1 acceptor
1 2 donor
1 3 donor
1 4 cation
1 4 donor
1 5 cation
1 5 donor
5 4 6 8 10 13 rings
5 5 7 9 11 14 rings
6 8 10 15 17 19 21 rings
6 9 11 16 18 20 22 rings

> <PUBCHEM_HEAVY_ATOM_COUNT>
22

> <PUBCHEM_ATOM_DEF_STEREO_COUNT>
0

> <PUBCHEM_ATOM_UDEF_STEREO_COUNT>
0

> <PUBCHEM_BOND_DEF_STEREO_COUNT>
0

> <PUBCHEM_BOND_UDEF_STEREO_COUNT>
0

> <PUBCHEM_ISOTOPIC_ATOM_COUNT>
0

> <PUBCHEM_COMPONENT_COUNT>
1

> <PUBCHEM_CACTVS_TAUTO_COUNT>
109

> <PUBCHEM_CONFORMER_ID>
00B1074F00000001

> <PUBCHEM_MMFF94_ENERGY>
50.5414

> <PUBCHEM_FEATURE_SELFOVERLAP>
56.011

> <PUBCHEM_SHAPE_FINGERPRINT>
11045515 52 18040995116059490868
11046707 91 18341609295942851992
11089746 13 8142077646626190890
11524674 6 16415478255416214215
12107183 9 17762902065221379081
12236239 1 18410860957691913217
12516196 113 18411980273619483208
12553582 1 18338503196974035367
12592606 108 18412543245950152271
12596602 18 17561082531319557970
12633257 1 15697709397896734522
12760667 363 18342735226505101711
13103583 49 18060430101056128505
13167823 11 18410573989446437926
13288520 33 18412546496269379677
13533116 47 18340487879987303697
13551218 46 18271808990971962303
13685833 64 18334860536827035267
13911987 19 15720259231117376750
14251752 14 17968087587085590229
14556957 393 16733848388753112830
14576447 43 18261110747555469098
14767858 380 18114476621522134580
15183329 4 18260818273310081445
15188451 53 16414903267112404751
15196674 1 18410572889940227812
15352361 1 18410291414958112490
15537594 2 18408886230513687698
15927050 60 17622162786249985500
17492 89 18120652431964241538
17857418 61 18411133640960109847
1813 80 18114755853534334892
19784866 240 18408327696166045541
200 152 18186802452777789728
20028762 73 18343862229844850734
20291156 8 18410851066382120104
21267235 1 18410863156709614690
22950370 63 18410575084663091904
2297311 6 18130795516813518308
23198884 109 15140958431377970389
23402539 116 18412260618893064492
235170 7 15864063248021671050
23522609 53 18122377693861298273
23559900 14 18268421511837579369
25147074 1 18338535082817308133
2767999 5 9151173146983172807
2838139 119 8574710182798037291
2871803 45 17967529073521999720
3004659 81 18186517709251637544
314194 84 18409450323102106451
335352 9 18411979144866140757
3411729 13 17201630280694604664
3421961 26 18340483477572128272
34797466 226 17417819470052696948
351380 3 18410572885645416422
4098825 35 15792560856163906423
4214541 1 18411699855315724293
4325135 7 18409451414788794756
46194498 28 16878224272084078709
463206 1 18335982076941697954
465052 167 18341899618509955751
5104073 3 17845380028194882315
559249 180 18412544285009919229
59682541 35 18340759430333414856
7970288 3 18410569587116385986
8863177 126 17970639699745341907
999808 66 17967828175699069851

> <PUBCHEM_SHAPE_MULTIPOLES>
425.18
14.81
2.22
0.81
0.09
0.66
0
-9.12
0
0.01
0
0
-0.15
-1.07

> <PUBCHEM_SHAPE_SELFOVERLAP>
971.882

> <PUBCHEM_SHAPE_VOLUME>
222.8

> <PUBCHEM_COORDINATE_TYPE>
2
5
10

$$$$
9549296
  -OEChem-11282412143D

 39 40  0     0  0  0  0  0  0999 V2000
   -5.6939   -0.5119    0.0393 F   0  0  0  0  0  0  0  0  0  0  0  0
   -4.6981    0.0770    1.8737 F   0  0  0  0  0  0  0  0  0  0  0  0
   -5.0629    1.5505    0.3166 F   0  0  0  0  0  0  0  0  0  0  0  0
    0.9516    3.5186   -0.3055 O   0  0  0  0  0  0  0  0  0  0  0  0
    0.1682    1.0928    0.1128 N   0  0  0  0  0  0  0  0  0  0  0  0
    3.5497   -2.1436    0.6922 N   0  0  0  0  0  0  0  0  0  0  0  0
    1.8590   -0.5423    0.4061 N   0  0  0  0  0  0  0  0  0  0  0  0
    4.1845    0.0794    0.2927 N   0  0  0  0  0  0  0  0  0  0  0  0
    1.1210   -4.7477   -0.2992 N   0  0  0  0  0  0  0  0  0  0  0  0
    3.1811    4.0432   -0.4171 N   0  0  0  0  0  0  0  0  0  0  0  0
   -0.9798    0.3755   -0.2842 C   0  0  0  0  0  0  0  0  0  0  0  0
    1.5329    0.7505    0.1738 C   0  0  0  0  0  0  0  0  0  0  0  0
   -3.3513   -0.0468   -0.0990 C   0  0  0  0  0  0  0  0  0  0  0  0
    2.5944   -3.1901    0.8808 C   0  0  0  0  0  0  0  0  0  0  0  0
   -2.2161    0.6616    0.2949 C   0  0  0  0  0  0  0  0  0  0  0  0
    2.4753    1.7478   -0.0061 C   0  0  0  0  0  0  0  0  0  0  0  0
    3.1794   -0.8027    0.4520 C   0  0  0  0  0  0  0  0  0  0  0  0
   -0.8787   -0.6186   -1.2573 C   0  0  0  0  0  0  0  0  0  0  0  0
    2.0911   -3.6739   -0.4730 C   0  0  0  0  0  0  0  0  0  0  0  0
   -3.2503   -1.0410   -1.0720 C   0  0  0  0  0  0  0  0  0  0  0  0
   -2.0140   -1.3269   -1.6511 C   0  0  0  0  0  0  0  0  0  0  0  0
    3.7951    1.3508    0.0645 C   0  0  0  0  0  0  0  0  0  0  0  0
   -4.6731    0.2583    0.5199 C   0  0  0  0  0  0  0  0  0  0  0  0
    2.1349    3.1395   -0.2550 C   0  0  0  0  0  0  0  0  0  0  0  0
   -0.0488    1.9555    0.6045 H   0  0  0  0  0  0  0  0  0  0  0  0
    3.0875   -4.0205    1.4011 H   0  0  0  0  0  0  0  0  0  0  0  0
    1.7691   -2.8702    1.5292 H   0  0  0  0  0  0  0  0  0  0  0  0
   -2.2986    1.4358    1.0545 H   0  0  0  0  0  0  0  0  0  0  0  0
    0.0703   -0.8498   -1.7331 H   0  0  0  0  0  0  0  0  0  0  0  0
    4.5413   -2.3514    0.7070 H   0  0  0  0  0  0  0  0  0  0  0  0
    2.9286   -4.0426   -1.0762 H   0  0  0  0  0  0  0  0  0  0  0  0
    1.6237   -2.8601   -1.0371 H   0  0  0  0  0  0  0  0  0  0  0  0
   -4.1230   -1.6032   -1.3926 H   0  0  0  0  0  0  0  0  0  0  0  0
   -1.9355   -2.0992   -2.4108 H   0  0  0  0  0  0  0  0  0  0  0  0
    4.6413    2.0148   -0.0548 H   0  0  0  0  0  0  0  0  0  0  0  0
    0.3195   -4.4038    0.2284 H   0  0  0  0  0  0  0  0  0  0  0  0
    0.7624   -5.0302   -1.2104 H   0  0  0  0  0  0  0  0  0  0  0  0
    4.1674    3.8185   -0.3858 H   0  0  0  0  0  0  0  0  0  0  0  0
    2.9715    5.0222   -0.5852 H   0  0  0  0  0  0  0  0  0  0  0  0
  1 23  1  0  0  0  0
  2 23  1  0  0  0  0
  3 23  1  0  0  0  0
  4 24  2  0  0  0  0
  5 11  1  0  0  0  0
  5 12  1  0  0  0  0
  5 25  1  0  0  0  0
  6 14  1  0  0  0  0
  6 17  1  0  0  0  0
  6 30  1  0  0  0  0
  7 12  2  0  0  0  0
  7 17  1  0  0  0  0
  8 17  2  0  0  0  0
  8 22  1  0  0  0  0
  9 19  1  0  0  0  0
  9 36  1  0  0  0  0
  9 37  1  0  0  0  0
 10 24  1  0  0  0  0
 10 38  1  0  0  0  0
 10 39  1  0  0  0  0
 11 15  1  0  0  0  0
 11 18  2  0  0  0  0
 12 16  1  0  0  0  0
 13 15  2  0  0  0  0
 13 20  1  0  0  0  0
 13 23  1  0  0  0  0
 14 19  1  0  0  0  0
 14 26  1  0  0  0  0
 14 27  1  0  0  0  0
 15 28  1  0  0  0  0
 16 22  2  0  0  0  0
 16 24  1  0  0  0  0
 18 21  1  0  0  0  0
 18 29  1  0  0  0  0
 19 31  1  0  0  0  0
 19 32  1  0  0  0  0
 20 21  2  0  0  0  0
 20 33  1  0  0  0  0
 21 34  1  0  0  0  0
 22 35  1  0  0  0  0
M  END
> <PUBCHEM_COMPOUND_CID>
9549296

> <PUBCHEM_CONFORMER_RMSD>
0.8

> <PUBCHEM_CONFORMER_DIVERSEORDER>
11
134
17
144
25
100
175
37
30
160
140
43
118
178
19
120
79
44
88
157
12
90
115
16
173
163
148
3
128
65
166
27
179
155
151
61
158
147
18
91
138
107
1
142
124
2
127
153
35
152
112
106
149
21
60
156
176
137
76
174
5
109
23
53
46
31
103
33
164
47
101
117
161
133
87
125
69
94
10
15
171
131
108
114
180
167
74
40
104
13
129
170
75
139
98
68
28
93
48
181
165
71
38
143
111
26
56
81
122
20
113
182
29
49
42
177
97
36
126
146
64
162
136
135
172
83
110
159
54
66
85
141
8
132
14
102
70
150
145
82
99
80
105
96
39
62
58
32
168
41
4
77
34
67
78
123
95
89
92
121
22
86
63
154
72
169
116
9
130
57
73
59
55
45
52
84
6
24
119
7
51
50

> <PUBCHEM_MMFF94_PARTIAL_CHARGES>
35
1 -0.34
10 -0.8
11 0.1
12 0.41
13 -0.14
14 0.37
15 -0.15
16 0.09
17 0.72
18 -0.15
19 0.27
2 -0.34
20 -0.15
21 -0.15
22 0.16
23 1.16
24 0.54
25 0.4
28 0.15
29 0.15
3 -0.34
30 0.4
33 0.15
34 0.15
35 0.15
36 0.36
37 0.36
38 0.37
39 0.37
4 -0.57
5 -0.6
6 -0.87
7 -0.62
8 -0.62
9 -0.99

> <PUBCHEM_EFFECTIVE_ROTOR_COUNT>
7

> <PUBCHEM_PHARMACOPHORE_FEATURES>
9
1 10 donor
1 4 acceptor
1 5 donor
1 6 donor
1 9 cation
1 9 donor
4 6 7 8 17 cation
6 11 13 15 18 20 21 rings
6 7 8 12 16 17 22 rings

> <PUBCHEM_HEAVY_ATOM_COUNT>
24

> <PUBCHEM_ATOM_DEF_STEREO_COUNT>
0

> <PUBCHEM_ATOM_UDEF_STEREO_COUNT>
0

> <PUBCHEM_BOND_DEF_STEREO_COUNT>
0

> <PUBCHEM_BOND_UDEF_STEREO_COUNT>
0

> <PUBCHEM_ISOTOPIC_ATOM_COUNT>
0

> <PUBCHEM_COMPONENT_COUNT>
1

> <PUBCHEM_CACTVS_TAUTO_COUNT>
21

> <PUBCHEM_CONFORMER_ID>
0091B5F00000000B

> <PUBCHEM_MMFF94_ENERGY>
73.1047

> <PUBCHEM_FEATURE_SELFOVERLAP>
45.672

> <PUBCHEM_SHAPE_FINGERPRINT>
1100329 8 18194108845563336088
12107183 9 18052542067468639489
12236239 1 18131070471449767769
12553582 1 18266446634256169038
12633257 1 18260535719505860426
13140716 1 18192705864009476536
13533116 47 18408603695571267235
13583140 156 18334581265548329481
13785724 45 17838911334557981391
138480 1 18266456508301586430
14178342 30 17982988323014949362
14790565 3 18265618878004857900
14863182 85 18336266765439915910
15664445 248 18270134422241357244
15842332 3 18058151994441135367
17138139 8 17194007464730517895
17349148 13 17489858337616177877
17818456 19 17702107963167925305
1813 80 18269281153683814766
20645477 70 18334285453401280371
20739085 24 18411134697975654530
21197605 99 18046356494082007291
21421861 104 18270408178571278530
2255824 54 18410006680644575660
23557571 272 15502641690281395183
23558518 356 17767111369706039374
23559900 14 18408882915062120835
23598291 2 18129090298257987332
23929065 36 16758021508483784008
25147074 1 17989197158525628303
283562 15 16678089220725347368
314173 41 18339646637891721222
3421961 26 18337951173760469186
474 4 18192426592013865560
5309563 4 18192991521915594370
5312544 6 18267579285767198687
633830 44 18197782304778898444
6443956 14 18191587458477628414
7097593 13 18343014463297481335
8272917 22 18410578378903027471
86090 222 17241634761488427819

> <PUBCHEM_SHAPE_MULTIPOLES>
436.33
9.51
4.73
1.06
11.59
2.18
-0.04
-1.37
2.45
-6.92
-0.58
0.91
0.35
-1.3

> <PUBCHEM_SHAPE_SELFOVERLAP>
928.792

> <PUBCHEM_SHAPE_VOLUME>
241.6

> <PUBCHEM_COORDINATE_TYPE>
2
5
10

$$$$
16126651
  -OEChem-11282412143D

 57 61  0     1  0  0  0  0  0999 V2000
   -7.6314    1.6852    0.1971 O   0  0  0  0  0  0  0  0  0  0  0  0
    4.9847    1.7942    1.0072 O   0  0  0  0  0  0  0  0  0  0  0  0
   -5.3448    1.4567   -0.1570 N   0  0  0  0  0  0  0  0  0  0  0  0
   -2.0974   -0.4347   -0.5226 N   0  0  0  0  0  0  0  0  0  0  0  0
   -1.0756    0.4186   -0.3370 N   0  0  0  0  0  0  0  0  0  0  0  0
   -2.5654   -2.8091   -0.4763 N   0  0  0  0  0  0  0  0  0  0  0  0
   -0.5762   -4.1063    0.0810 N   0  0  0  0  0  0  0  0  0  0  0  0
    1.5421   -3.0961    0.5171 N   0  0  0  0  0  0  0  0  0  0  0  0
   -3.4211    0.0921   -0.8710 C   0  0  2  0  0  0  0  0  0  0  0  0
   -3.4248    0.8181   -2.2301 C   0  0  0  0  0  0  0  0  0  0  0  0
   -4.0060    0.9889    0.2325 C   0  0  0  0  0  0  0  0  0  0  0  0
   -4.8189    1.3585   -2.5574 C   0  0  0  0  0  0  0  0  0  0  0  0
   -5.3706    2.2085   -1.4142 C   0  0  0  0  0  0  0  0  0  0  0  0
   -1.7593   -1.7424   -0.3559 C   0  0  0  0  0  0  0  0  0  0  0  0
   -0.4128   -1.7478   -0.0366 C   0  0  0  0  0  0  0  0  0  0  0  0
   -6.5281    1.2643    0.5494 C   0  0  0  0  0  0  0  0  0  0  0  0
   -0.0505   -0.3880   -0.0408 C   0  0  0  0  0  0  0  0  0  0  0  0
    0.1793   -2.9866    0.1858 C   0  0  0  0  0  0  0  0  0  0  0  0
    1.2485    0.1745    0.2296 C   0  0  0  0  0  0  0  0  0  0  0  0
   -6.4604    0.4954    1.8080 C   0  0  0  0  0  0  0  0  0  0  0  0
   -1.8829   -3.9501   -0.2391 C   0  0  0  0  0  0  0  0  0  0  0  0
    2.1500    0.3672   -0.8136 C   0  0  0  0  0  0  0  0  0  0  0  0
    1.5946    0.5224    1.5325 C   0  0  0  0  0  0  0  0  0  0  0  0
   -7.3319    0.7817    2.7667 C   0  0  0  0  0  0  0  0  0  0  0  0
    3.4073    0.9117   -0.5519 C   0  0  0  0  0  0  0  0  0  0  0  0
    2.8518    1.0671    1.7942 C   0  0  0  0  0  0  0  0  0  0  0  0
    3.7582    1.2617    0.7520 C   0  0  0  0  0  0  0  0  0  0  0  0
    6.0828    1.1945    0.4137 C   0  0  0  0  0  0  0  0  0  0  0  0
    6.1868   -0.1847    0.4274 C   0  0  0  0  0  0  0  0  0  0  0  0
    7.0477    1.9902   -0.1770 C   0  0  0  0  0  0  0  0  0  0  0  0
    7.2934   -0.7887   -0.1696 C   0  0  0  0  0  0  0  0  0  0  0  0
    8.1542    1.3862   -0.7740 C   0  0  0  0  0  0  0  0  0  0  0  0
    8.2771   -0.0033   -0.7703 C   0  0  0  0  0  0  0  0  0  0  0  0
   -4.0792   -0.7823   -0.9684 H   0  0  0  0  0  0  0  0  0  0  0  0
   -3.0965    0.1365   -3.0239 H   0  0  0  0  0  0  0  0  0  0  0  0
   -2.7111    1.6518   -2.2165 H   0  0  0  0  0  0  0  0  0  0  0  0
   -4.0099    0.4619    1.1879 H   0  0  0  0  0  0  0  0  0  0  0  0
   -3.3855    1.8824    0.3784 H   0  0  0  0  0  0  0  0  0  0  0  0
   -4.7807    1.9511   -3.4780 H   0  0  0  0  0  0  0  0  0  0  0  0
   -5.4951    0.5143   -2.7421 H   0  0  0  0  0  0  0  0  0  0  0  0
   -6.3871    2.5346   -1.6555 H   0  0  0  0  0  0  0  0  0  0  0  0
   -4.7613    3.1092   -1.2744 H   0  0  0  0  0  0  0  0  0  0  0  0
   -5.7532   -0.3132    1.9313 H   0  0  0  0  0  0  0  0  0  0  0  0
   -2.4586   -4.8663   -0.3148 H   0  0  0  0  0  0  0  0  0  0  0  0
    1.8893    0.1036   -1.8358 H   0  0  0  0  0  0  0  0  0  0  0  0
    0.8993    0.3763    2.3556 H   0  0  0  0  0  0  0  0  0  0  0  0
    2.1299   -2.2800    0.6022 H   0  0  0  0  0  0  0  0  0  0  0  0
    1.9326   -4.0161    0.6707 H   0  0  0  0  0  0  0  0  0  0  0  0
   -8.0679    1.5739    2.6823 H   0  0  0  0  0  0  0  0  0  0  0  0
   -7.3218    0.2163    3.6932 H   0  0  0  0  0  0  0  0  0  0  0  0
    4.0839    1.0738   -1.3868 H   0  0  0  0  0  0  0  0  0  0  0  0
    3.1197    1.3375    2.8119 H   0  0  0  0  0  0  0  0  0  0  0  0
    5.4468   -0.8172    0.9092 H   0  0  0  0  0  0  0  0  0  0  0  0
    6.9533    3.0719   -0.1807 H   0  0  0  0  0  0  0  0  0  0  0  0
    7.3919   -1.8703   -0.1621 H   0  0  0  0  0  0  0  0  0  0  0  0
    8.9203    1.9978   -1.2415 H   0  0  0  0  0  0  0  0  0  0  0  0
    9.1393   -0.4734   -1.2340 H   0  0  0  0  0  0  0  0  0  0  0  0
  1 16  2  0  0  0  0
  2 27  1  0  0  0  0
  2 28  1  0  0  0  0
  3 11  1  0  0  0  0
  3 13  1  0  0  0  0
  3 16  1  0  0  0  0
  4  5  1  0  0  0  0
  4  9  1  0  0  0  0
  4 14  1  0  0  0  0
  5 17  2  0  0  0  0
  6 14  2  0  0  0  0
  6 21  1  0  0  0  0
  7 18  1  0  0  0  0
  7 21  2  0  0  0  0
  8 18  1  0  0  0  0
  8 47  1  0  0  0  0
  8 48  1  0  0  0  0
  9 10  1  0  0  0  0
  9 11  1  0  0  0  0
  9 34  1  0  0  0  0
 10 12  1  0  0  0  0
 10 35  1  0  0  0  0
 10 36  1  0  0  0  0
 11 37  1  0  0  0  0
 11 38  1  0  0  0  0
 12 13  1  0  0  0  0
 12 39  1  0  0  0  0
 12 40  1  0  0  0  0
 13 41  1  0  0  0  0
 13 42  1  0  0  0  0
 14 15  1  0  0  0  0
 15 17  1  0  0  0  0
 15 18  2  0  0  0  0
 16 20  1  0  0  0  0
 17 19  1  0  0  0  0
 19 22  2  0  0  0  0
 19 23  1  0  0  0  0
 20 24  2  0  0  0  0
 20 43  1  0  0  0  0
 21 44  1  0  0  0  0
 22 25  1  0  0  0  0
 22 45  1  0  0  0  0
 23 26  2  0  0  0  0
 23 46  1  0  0  0  0
 24 49  1  0  0  0  0
 24 50  1  0  0  0  0
 25 27  2  0  0  0  0
 25 51  1  0  0  0  0
 26 27  1  0  0  0  0
 26 52  1  0  0  0  0
 28 29  2  0  0  0  0
 28 30  1  0  0  0  0
 29 31  1  0  0  0  0
 29 53  1  0  0  0  0
 30 32  2  0  0  0  0
 30 54  1  0  0  0  0
 31 33  2  0  0  0  0
 31 55  1  0  0  0  0
 32 33  1  0  0  0  0
 32 56  1  0  0  0  0
 33 57  1  0  0  0  0
M  END
> <PUBCHEM_COMPOUND_CID>
16126651

> <PUBCHEM_CONFORMER_RMSD>
1

> <PUBCHEM_CONFORMER_DIVERSEORDER>
19
91
50
15
85
31
79
43
84
27
97
17
106
33
77
95
61
4
92
18
104
83
45
51
99
32
108
10
107
7
100
3
11
94
78
38
1
48
86
98
59
62
90
41
23
70
87
81
13
39
69
105
96
74
46
93
47
8
53
64
88
21
63
20
68
29
103
89
57
30
102
35
2
9
42
25
71
37
24
73
56
58
28
5
67
14
16
75
26
101
36
49
12
60
80
22
55
6
34
44
54
40
52
65
66
82
76
72

> <PUBCHEM_MMFF94_PARTIAL_CHARGES>
45
1 -0.57
11 0.3
13 0.3
14 0.11
16 0.62
17 0.23
18 0.41
19 0.05
2 -0.17
20 -0.14
21 0.47
22 -0.15
23 -0.15
24 -0.3
25 -0.15
26 -0.15
27 0.08
28 0.08
29 -0.15
3 -0.66
30 -0.15
31 -0.15
32 -0.15
33 -0.15
4 0.31
43 0.15
44 0.15
45 0.15
46 0.15
47 0.4
48 0.4
49 0.15
5 -0.71
50 0.15
51 0.15
52 0.15
53 0.15
54 0.15
55 0.15
56 0.15
57 0.15
6 -0.57
7 -0.62
8 -0.9
9 0.26

> <PUBCHEM_EFFECTIVE_ROTOR_COUNT>
7.2

> <PUBCHEM_PHARMACOPHORE_FEATURES>
13
1 1 acceptor
1 2 acceptor
1 24 hydrophobe
1 5 acceptor
1 8 cation
1 8 donor
3 4 6 14 cation
3 6 7 21 cation
5 4 5 14 15 17 rings
6 19 22 23 25 26 27 rings
6 28 29 30 31 32 33 rings
6 3 9 10 11 12 13 rings
6 6 7 14 15 18 21 rings

> <PUBCHEM_HEAVY_ATOM_COUNT>
33

> <PUBCHEM_ATOM_DEF_STEREO_COUNT>
0

> <PUBCHEM_ATOM_UDEF_STEREO_COUNT>
1

> <PUBCHEM_BOND_DEF_STEREO_COUNT>
0

> <PUBCHEM_BOND_UDEF_STEREO_COUNT>
0

> <PUBCHEM_ISOTOPIC_ATOM_COUNT>
0

> <PUBCHEM_COMPONENT_COUNT>
1

> <PUBCHEM_CACTVS_TAUTO_COUNT>
5

> <PUBCHEM_CONFORMER_ID>
00F612BB00000013

> <PUBCHEM_MMFF94_ENERGY>
95.4991

> <PUBCHEM_FEATURE_SELFOVERLAP>
66.252

> <PUBCHEM_SHAPE_FINGERPRINT>
10 15 17967533463200369169
10165383 225 18411138026665089981
10369192 42 18260828185720190765
10577160 103 9871463188696443355
10674148 151 16917067741861651912
10835480 77 18200021989228631424
11135609 99 14708074197006179497
11331351 85 17622443170801875671
11621639 183 17314229952504541317
11621639 336 17628649552667553641
11796584 16 18341330081189811166
13383668 251 14057575673046113436
13914758 101 15985106301654340344
14040221 275 18192740975689583891
14294032 229 18334288799676533671
14444916 359 18410864243568968958
15064986 266 18042697268461572594
15183329 4 18343014476710085676
15230672 131 18335414652729768994
15357212 105 18047479108439153052
15849732 13 17967255295327474996
15927050 60 18412537725889106951
17913733 40 18411424977920256283
19304152 47 17385718072326924591
19611394 137 17458638838696012457
20105231 36 17822017497474147018
21033648 29 18268135617497737968
21279426 13 18343020017544964798
21756936 100 17775289357416564865
23389318 12 11458435656226466008
23559900 14 18271518819335005432
249057 3 18410293627789897292
38570 142 17917991664144276481
4073 2 18264487455449807594
4144715 1 18122902303353123728
4408954 64 16013286960694696587
474113 269 14692302677963982564
4938544 92 15140947423667000261
508180 173 16056878039743603475
5265222 85 18193280926351064222
5385378 56 18337391539221275755
563151 40 18187364363217796442
57527295 17 17489579091163368167
59755656 520 18343018908768000179
6009941 240 18341609365653800200
6086070 43 17489583506495081402
6126387 218 15841547467042245096
613672 6 9078836337564697161
6523845 18 18411981369263489481
6669772 16 18342461391669329359
6698420 124 18130793369018433225
9689198 14 17748828505855484776
9982175 41 16298652903566656783

> <PUBCHEM_SHAPE_MULTIPOLES>
637.5
22.68
3.36
1.76
16.37
4.99
-0.16
-17.13
-2.29
-1.88
0.3
-3.58
-1.01
0.42

> <PUBCHEM_SHAPE_SELFOVERLAP>
1404.664

> <PUBCHEM_SHAPE_VOLUME>
339.5

> <PUBCHEM_COORDINATE_TYPE>
2
5
10

$$$$
6450551
  -OEChem-11282412143D

 46 49  0     0  0  0  0  0  0999 V2000
   -3.2724    0.4260    1.8356 S   0  0  0  0  0  0  0  0  0  0  0  0
   -6.6235   -0.7942    1.1015 O   0  0  0  0  0  0  0  0  0  0  0  0
    0.5260   -1.6296   -1.1911 N   0  0  0  0  0  0  0  0  0  0  0  0
    1.8616   -1.5157   -1.2808 N   0  0  0  0  0  0  0  0  0  0  0  0
   -5.1376   -2.0264   -0.1832 N   0  0  0  0  0  0  0  0  0  0  0  0
    6.0507    0.7697    0.6552 N   0  0  0  0  0  0  0  0  0  0  0  0
    1.0254   -0.1979    0.3932 C   0  0  0  0  0  0  0  0  0  0  0  0
   -0.0377   -0.8643   -0.2060 C   0  0  0  0  0  0  0  0  0  0  0  0
    2.1618   -0.6437   -0.3154 C   0  0  0  0  0  0  0  0  0  0  0  0
   -1.3638   -0.7041    0.2015 C   0  0  0  0  0  0  0  0  0  0  0  0
   -1.5988    0.1744    1.2642 C   0  0  0  0  0  0  0  0  0  0  0  0
    0.7733    0.6814    1.4595 C   0  0  0  0  0  0  0  0  0  0  0  0
   -0.5499    0.8563    1.8839 C   0  0  0  0  0  0  0  0  0  0  0  0
   -4.0506    1.0577    0.3572 C   0  0  0  0  0  0  0  0  0  0  0  0
    3.4897   -0.2216   -0.0443 C   0  0  0  0  0  0  0  0  0  0  0  0
   -5.1278    0.4064   -0.2477 C   0  0  0  0  0  0  0  0  0  0  0  0
   -3.5546    2.2394   -0.1975 C   0  0  0  0  0  0  0  0  0  0  0  0
    4.6351   -0.6218   -0.6582 C   0  0  0  0  0  0  0  0  0  0  0  0
   -5.7064    0.9347   -1.4018 C   0  0  0  0  0  0  0  0  0  0  0  0
   -4.1332    2.7676   -1.3516 C   0  0  0  0  0  0  0  0  0  0  0  0
   -5.6880   -0.8302    0.2859 C   0  0  0  0  0  0  0  0  0  0  0  0
   -5.2089    2.1153   -1.9537 C   0  0  0  0  0  0  0  0  0  0  0  0
    5.9908   -0.1526   -0.3196 C   0  0  0  0  0  0  0  0  0  0  0  0
    7.0699   -0.6684   -0.9994 C   0  0  0  0  0  0  0  0  0  0  0  0
    8.3285   -0.1945   -0.6465 C   0  0  0  0  0  0  0  0  0  0  0  0
   -5.5996   -3.3315    0.2318 C   0  0  0  0  0  0  0  0  0  0  0  0
    7.2904    1.2066    0.9709 C   0  0  0  0  0  0  0  0  0  0  0  0
    8.4496    0.7610    0.3564 C   0  0  0  0  0  0  0  0  0  0  0  0
   -2.1610   -1.2494   -0.2917 H   0  0  0  0  0  0  0  0  0  0  0  0
    1.5754    1.2207    1.9539 H   0  0  0  0  0  0  0  0  0  0  0  0
   -0.7422    1.5384    2.7095 H   0  0  0  0  0  0  0  0  0  0  0  0
    0.0551   -2.2512   -1.8367 H   0  0  0  0  0  0  0  0  0  0  0  0
    3.5889    0.5066    0.7587 H   0  0  0  0  0  0  0  0  0  0  0  0
   -2.7223    2.7733    0.2550 H   0  0  0  0  0  0  0  0  0  0  0  0
    4.5773   -1.3520   -1.4628 H   0  0  0  0  0  0  0  0  0  0  0  0
   -6.5454    0.4371   -1.8815 H   0  0  0  0  0  0  0  0  0  0  0  0
   -3.7472    3.6878   -1.7805 H   0  0  0  0  0  0  0  0  0  0  0  0
   -5.6596    2.5269   -2.8521 H   0  0  0  0  0  0  0  0  0  0  0  0
   -4.3989   -1.9864   -0.8793 H   0  0  0  0  0  0  0  0  0  0  0  0
    6.9688   -1.4136   -1.7810 H   0  0  0  0  0  0  0  0  0  0  0  0
    9.2136   -0.5689   -1.1522 H   0  0  0  0  0  0  0  0  0  0  0  0
   -4.7527   -4.0211    0.2095 H   0  0  0  0  0  0  0  0  0  0  0  0
   -6.3647   -3.6645   -0.4736 H   0  0  0  0  0  0  0  0  0  0  0  0
   -6.0214   -3.2881    1.2389 H   0  0  0  0  0  0  0  0  0  0  0  0
    7.3306    1.9513    1.7590 H   0  0  0  0  0  0  0  0  0  0  0  0
    9.4206    1.1447    0.6478 H   0  0  0  0  0  0  0  0  0  0  0  0
  1 11  1  0  0  0  0
  1 14  1  0  0  0  0
  2 21  2  0  0  0  0
  3  4  1  0  0  0  0
  3  8  1  0  0  0  0
  3 32  1  0  0  0  0
  4  9  2  0  0  0  0
  5 21  1  0  0  0  0
  5 26  1  0  0  0  0
  5 39  1  0  0  0  0
  6 23  1  0  0  0  0
  6 27  2  0  0  0  0
  7  8  2  0  0  0  0
  7  9  1  0  0  0  0
  7 12  1  0  0  0  0
  8 10  1  0  0  0  0
  9 15  1  0  0  0  0
 10 11  2  0  0  0  0
 10 29  1  0  0  0  0
 11 13  1  0  0  0  0
 12 13  2  0  0  0  0
 12 30  1  0  0  0  0
 13 31  1  0  0  0  0
 14 16  1  0  0  0  0
 14 17  2  0  0  0  0
 15 18  2  0  0  0  0
 15 33  1  0  0  0  0
 16 19  2  0  0  0  0
 16 21  1  0  0  0  0
 17 20  1  0  0  0  0
 17 34  1  0  0  0  0
 18 23  1  0  0  0  0
 18 35  1  0  0  0  0
 19 22  1  0  0  0  0
 19 36  1  0  0  0  0
 20 22  2  0  0  0  0
 20 37  1  0  0  0  0
 22 38  1  0  0  0  0
 23 24  2  0  0  0  0
 24 25  1  0  0  0  0
 24 40  1  0  0  0  0
 25 28  2  0  0  0  0
 25 41  1  0  0  0  0
 26 42  1  0  0  0  0
 26 43  1  0  0  0  0
 26 44  1  0  0  0  0
 27 28  1  0  0  0  0
 27 45  1  0  0  0  0
 28 46  1  0  0  0  0
M  END
> <PUBCHEM_COMPOUND_CID>
6450551

> <PUBCHEM_CONFORMER_RMSD>
0.8

> <PUBCHEM_CONFORMER_DIVERSEORDER>
1
66
14
102
176
69
55
197
193
129
6
87
205
112
219
177
179
32
171
187
195
212
182
159
221
191
99
23
184
148
203
201
214
76
65
141
132
217
37
133
72
151
131
172
210
79
82
150
33
200
83
154
123
90
218
142
111
139
175
107
97
42
121
204
164
216
58
169
28
186
173
100
74
47
117
192
155
158
110
92
49
166
174
202
84
153
105
190
43
46
96
188
64
207
194
137
125
22
39
10
122
34
222
63
165
178
213
209
162
18
115
78
73
19
124
60
134
70
215
118
126
104
140
113
160
50
183
80
75
130
48
21
156
143
108
91
128
11
15
206
163
120
181
198
26
62
138
168
36
93
4
220
161
71
13
53
147
20
24
101
208
5
94
211
189
35
17
68
89
127
152
2
9
136
145
106
199
146
27
16
144
77
57
109
135
7
167
88
196
67
116
52
45
44
25
31
85
95
185
157
3
81
8
86
56
59
170
38
30
149
12
61
119
103
54
29
114
180
98
40
41
51

> <PUBCHEM_MMFF94_PARTIAL_CHARGES>
42
1 -0.2
10 -0.15
11 0.1
12 -0.15
13 -0.15
14 0.1
15 -0.1
16 0.09
17 -0.15
18 -0.18
19 -0.15
2 -0.57
20 -0.15
21 0.54
22 -0.15
23 0.34
24 -0.15
25 -0.15
26 0.3
27 0.16
28 -0.15
29 0.15
3 0.3
30 0.15
31 0.15
32 0.27
33 0.15
34 0.15
35 0.15
36 0.15
37 0.15
38 0.15
39 0.37
4 -0.71
40 0.15
41 0.15
45 0.15
46 0.15
5 -0.73
6 -0.62
8 -0.15
9 0.24

> <PUBCHEM_EFFECTIVE_ROTOR_COUNT>
6

> <PUBCHEM_PHARMACOPHORE_FEATURES>
9
1 2 acceptor
1 3 donor
1 4 acceptor
1 5 donor
1 6 acceptor
5 3 4 7 8 9 rings
6 14 16 17 19 20 22 rings
6 6 23 24 25 27 28 rings
6 7 8 10 11 12 13 rings

> <PUBCHEM_HEAVY_ATOM_COUNT>
28

> <PUBCHEM_ATOM_DEF_STEREO_COUNT>
0

> <PUBCHEM_ATOM_UDEF_STEREO_COUNT>
0

> <PUBCHEM_BOND_DEF_STEREO_COUNT>
1

> <PUBCHEM_BOND_UDEF_STEREO_COUNT>
0

> <PUBCHEM_ISOTOPIC_ATOM_COUNT>
0

> <PUBCHEM_COMPONENT_COUNT>
1

> <PUBCHEM_CACTVS_TAUTO_COUNT>
8

> <PUBCHEM_CONFORMER_ID>
00626D7700000001

> <PUBCHEM_MMFF94_ENERGY>
72.1461

> <PUBCHEM_FEATURE_SELFOVERLAP>
45.764

> <PUBCHEM_SHAPE_FINGERPRINT>
100830 39 18409165510867092190
10087517 78 17385723556467873269
10299344 5 14189574135372350180
11089746 13 16877947143867582380
11103572 155 11167675273892302884
11135926 11 17560803203895235935
11434127 23 18341609275069084711
11477941 20 18114455734780052989
11991303 11 18059568135580189870
12082328 90 17918279714157020825
13631057 29 18341049709693057243
13911987 19 17846771871954310581
13914758 101 17894630340715507288
14251764 18 15936412243470063124
14767858 380 16988556888693922036
14856354 85 18187930633613583655
15064986 266 18058173830756669513
15183329 4 15502377829266349488
15419008 47 18412541016018620408
15461852 350 18260555536890548318
15849732 13 18342458158191301676
17093844 174 8934997049512910477
17686467 74 18115873077638932993
19489759 90 17821452348207286961
21150785 3 16988839476156729340
21756936 100 16805609136416916769
21792961 116 18202282472410855438
23516275 137 12750702671531119716
23522609 53 13829575431072114386
23559900 14 17059762430034512816
2838139 119 17240770587612618901
445580 167 16702294672947848168
5207 217 18060421318021905754
54039377 194 15984811680278719877
58260988 114 15625650748499717231
6328613 192 15141259745003884964
6691757 9 16371018403203821704

> <PUBCHEM_SHAPE_MULTIPOLES>
554.28
23.44
2.27
1.57
39.62
0.4
-0.2
-1.77
3.39
-5.43
0.76
-1.13
-0.53
2.6

> <PUBCHEM_SHAPE_SELFOVERLAP>
1205.661

> <PUBCHEM_SHAPE_VOLUME>
303.6

> <PUBCHEM_COORDINATE_TYPE>
2
5
10

$$$$
216239
  -OEChem-11282412143D

 48 50  0     0  0  0  0  0  0999 V2000
    7.7854    2.0528    1.6778 Cl  0  0  0  0  0  0  0  0  0  0  0  0
    7.6449   -0.6121   -1.8761 F   0  0  0  0  0  0  0  0  0  0  0  0
    8.2926    1.3717   -1.2854 F   0  0  0  0  0  0  0  0  0  0  0  0
    8.7282   -0.3356   -0.0110 F   0  0  0  0  0  0  0  0  0  0  0  0
   -4.6181   -2.3969    0.0885 O   0  0  0  0  0  0  0  0  0  0  0  0
    1.3131   -0.0372    1.1635 O   0  0  0  0  0  0  0  0  0  0  0  0
   -5.1711    2.2897   -1.7172 O   0  0  0  0  0  0  0  0  0  0  0  0
    2.9721   -0.7178   -0.3445 N   0  0  0  0  0  0  0  0  0  0  0  0
    0.8074   -1.4806   -0.6055 N   0  0  0  0  0  0  0  0  0  0  0  0
   -7.0459    0.8760    0.9036 N   0  0  0  0  0  0  0  0  0  0  0  0
   -6.8717    3.1925   -0.4250 N   0  0  0  0  0  0  0  0  0  0  0  0
    4.1137   -0.0687    0.1262 C   0  0  0  0  0  0  0  0  0  0  0  0
    6.4730    0.4164   -0.0616 C   0  0  0  0  0  0  0  0  0  0  0  0
    5.3322   -0.2336   -0.5325 C   0  0  0  0  0  0  0  0  0  0  0  0
   -0.5769   -1.7139   -0.4287 C   0  0  0  0  0  0  0  0  0  0  0  0
    4.0361    0.7462    1.2556 C   0  0  0  0  0  0  0  0  0  0  0  0
   -3.2869   -2.1710   -0.0825 C   0  0  0  0  0  0  0  0  0  0  0  0
    6.3955    1.2312    1.0677 C   0  0  0  0  0  0  0  0  0  0  0  0
   -1.2425   -2.5451   -1.3144 C   0  0  0  0  0  0  0  0  0  0  0  0
   -1.2374   -1.1063    0.6264 C   0  0  0  0  0  0  0  0  0  0  0  0
    5.1770    1.3962    1.7263 C   0  0  0  0  0  0  0  0  0  0  0  0
   -2.6072   -2.7753   -1.1401 C   0  0  0  0  0  0  0  0  0  0  0  0
   -2.6020   -1.3366    0.8008 C   0  0  0  0  0  0  0  0  0  0  0  0
    1.6552   -0.6790    0.1756 C   0  0  0  0  0  0  0  0  0  0  0  0
    7.7590    0.2148   -0.7966 C   0  0  0  0  0  0  0  0  0  0  0  0
   -5.4264   -1.3058    0.3604 C   0  0  0  0  0  0  0  0  0  0  0  0
   -5.2683   -0.1501   -0.3740 C   0  0  0  0  0  0  0  0  0  0  0  0
   -6.1022    0.9122   -0.0637 C   0  0  0  0  0  0  0  0  0  0  0  0
   -6.3718   -1.4007    1.3590 C   0  0  0  0  0  0  0  0  0  0  0  0
   -7.1564   -0.2825    1.5917 C   0  0  0  0  0  0  0  0  0  0  0  0
   -5.9960    2.1637   -0.7938 C   0  0  0  0  0  0  0  0  0  0  0  0
   -6.9045    4.4851   -1.0706 C   0  0  0  0  0  0  0  0  0  0  0  0
    5.3822   -0.8707   -1.4123 H   0  0  0  0  0  0  0  0  0  0  0  0
    3.1325    0.9249    1.8205 H   0  0  0  0  0  0  0  0  0  0  0  0
    3.1068   -1.2941   -1.1715 H   0  0  0  0  0  0  0  0  0  0  0  0
   -0.7226   -3.0206   -2.1414 H   0  0  0  0  0  0  0  0  0  0  0  0
   -0.7807   -0.4536    1.3550 H   0  0  0  0  0  0  0  0  0  0  0  0
    1.2323   -1.9556   -1.3979 H   0  0  0  0  0  0  0  0  0  0  0  0
    5.1011    2.0284    2.6076 H   0  0  0  0  0  0  0  0  0  0  0  0
   -3.1356   -3.4262   -1.8313 H   0  0  0  0  0  0  0  0  0  0  0  0
   -3.1017   -0.8721    1.6470 H   0  0  0  0  0  0  0  0  0  0  0  0
   -4.5423   -0.0769   -1.1764 H   0  0  0  0  0  0  0  0  0  0  0  0
   -6.5022   -2.3054    1.9409 H   0  0  0  0  0  0  0  0  0  0  0  0
   -7.9192   -0.2900    2.3632 H   0  0  0  0  0  0  0  0  0  0  0  0
   -7.5452    3.0188    0.3155 H   0  0  0  0  0  0  0  0  0  0  0  0
   -5.9286    4.7278   -1.4979 H   0  0  0  0  0  0  0  0  0  0  0  0
   -7.6556    4.4529   -1.8637 H   0  0  0  0  0  0  0  0  0  0  0  0
   -7.1857    5.2355   -0.3282 H   0  0  0  0  0  0  0  0  0  0  0  0
  1 18  1  0  0  0  0
  2 25  1  0  0  0  0
  3 25  1  0  0  0  0
  4 25  1  0  0  0  0
  5 17  1  0  0  0  0
  5 26  1  0  0  0  0
  6 24  2  0  0  0  0
  7 31  2  0  0  0  0
  8 12  1  0  0  0  0
  8 24  1  0  0  0  0
  8 35  1  0  0  0  0
  9 15  1  0  0  0  0
  9 24  1  0  0  0  0
  9 38  1  0  0  0  0
 10 28  2  0  0  0  0
 10 30  1  0  0  0  0
 11 31  1  0  0  0  0
 11 32  1  0  0  0  0
 11 45  1  0  0  0  0
 12 14  2  0  0  0  0
 12 16  1  0  0  0  0
 13 14  1  0  0  0  0
 13 18  2  0  0  0  0
 13 25  1  0  0  0  0
 14 33  1  0  0  0  0
 15 19  2  0  0  0  0
 15 20  1  0  0  0  0
 16 21  2  0  0  0  0
 16 34  1  0  0  0  0
 17 22  2  0  0  0  0
 17 23  1  0  0  0  0
 18 21  1  0  0  0  0
 19 22  1  0  0  0  0
 19 36  1  0  0  0  0
 20 23  2  0  0  0  0
 20 37  1  0  0  0  0
 21 39  1  0  0  0  0
 22 40  1  0  0  0  0
 23 41  1  0  0  0  0
 26 27  2  0  0  0  0
 26 29  1  0  0  0  0
 27 28  1  0  0  0  0
 27 42  1  0  0  0  0
 28 31  1  0  0  0  0
 29 30  2  0  0  0  0
 29 43  1  0  0  0  0
 30 44  1  0  0  0  0
 32 46  1  0  0  0  0
 32 47  1  0  0  0  0
 32 48  1  0  0  0  0
M  END
> <PUBCHEM_COMPOUND_CID>
216239

> <PUBCHEM_CONFORMER_RMSD>
1

> <PUBCHEM_CONFORMER_DIVERSEORDER>
1
49
75
137
62
110
23
116
66
92
114
67
144
28
136
35
99
124
42
125
106
147
82
104
126
107
149
60
87
94
6
96
135
16
131
101
83
138
84
108
127
91
3
142
122
52
51
132
129
11
88
130
100
73
80
57
140
37
113
86
145
43
56
63
64
133
85
105
93
48
90
40
55
18
89
68
53
143
72
78
121
120
4
119
29
74
61
103
150
27
45
30
128
38
123
41
71
117
139
97
77
46
111
59
109
95
98
146
7
148
141
24
65
134
26
115
14
118
70
15
39
17
112
8
102
32
58
47
22
20
81
34
54
44
69
36
33
76
25
10
21
79
2
5
9
31
19
13
50
12

> <PUBCHEM_MMFF94_PARTIAL_CHARGES>
45
1 -0.18
10 -0.62
11 -0.73
12 0.12
13 -0.14
14 -0.15
15 0.12
16 -0.15
17 0.08
18 0.18
19 -0.15
2 -0.34
20 -0.15
21 -0.15
22 -0.15
23 -0.15
24 0.69
25 1.16
26 0.08
27 -0.15
28 0.4
29 -0.15
3 -0.34
30 0.16
31 0.54
32 0.3
33 0.15
34 0.15
35 0.37
36 0.15
37 0.15
38 0.37
39 0.15
4 -0.34
40 0.15
41 0.15
42 0.15
43 0.15
44 0.15
45 0.37
5 -0.17
6 -0.57
7 -0.57
8 -0.55
9 -0.55

> <PUBCHEM_EFFECTIVE_ROTOR_COUNT>
9

> <PUBCHEM_PHARMACOPHORE_FEATURES>
10
1 10 acceptor
1 11 donor
1 5 acceptor
1 6 acceptor
1 7 acceptor
1 8 donor
1 9 donor
6 10 26 27 28 29 30 rings
6 12 13 14 16 18 21 rings
6 15 17 19 20 22 23 rings

> <PUBCHEM_HEAVY_ATOM_COUNT>
32

> <PUBCHEM_ATOM_DEF_STEREO_COUNT>
0

> <PUBCHEM_ATOM_UDEF_STEREO_COUNT>
0

> <PUBCHEM_BOND_DEF_STEREO_COUNT>
0

> <PUBCHEM_BOND_UDEF_STEREO_COUNT>
0

> <PUBCHEM_ISOTOPIC_ATOM_COUNT>
0

> <PUBCHEM_COMPONENT_COUNT>
1

> <PUBCHEM_CACTVS_TAUTO_COUNT>
6

> <PUBCHEM_CONFORMER_ID>
00034CAF00000001

> <PUBCHEM_MMFF94_ENERGY>
95.3947

> <PUBCHEM_FEATURE_SELFOVERLAP>
50.796

> <PUBCHEM_SHAPE_FINGERPRINT>
10 15 18333452036999875035
10165383 225 18131357402406607675
10369192 42 18131919256831950087
10533779 1 18117268165698148269
10554248 39 16271937042822844348
10625338 131 18410849932859278080
10625338 86 18261114092612748056
10674148 151 18335138718334087018
11135926 11 16917075451365157183
11181472 205 18186523164572208092
13111901 25 17749116603292088668
1361 4 9799426515771144668
13726171 33 18192153699357850169
13782708 43 9295286161932073599
13878862 14 16415188023623458184
14040221 8 18260554455577232916
14251764 18 15213016085487808106
14294032 229 17895473605773290468
14400156 413 17417806293262163888
14598715 104 18343007913425090641
14647877 103 18187364299040738749
14849402 71 16516259564216515836
14856354 85 17458908253473212163
14919807 6 18340215072918787230
14951699 99 18187641358885845563
15145343 29 17968642831378118189
15183329 4 17531519970873712022
15328684 2 17313650594963295761
15419008 91 17917135204900729280
15444296 121 17822299015310716473
15604295 49 18268425905842895744
15803439 3 16916487183117135847
16728433 281 18270691857057019400
21353434 59 18260265213913132004
21756936 100 18260545645913688187
21781055 127 17822007606971475488
21859007 373 18341612594635796524
22149856 69 13262669289001193614
23522609 53 17096102371522025454
23559900 14 16772947159317714290
23569914 2 17055221433737344529
2838139 119 18341324565860680263
3525247 18 17465367622304792637
3711267 37 17530688736152306300
4046055 4 17478598466390926863
4073 2 18056479685318248378
4169191 19 17989493995909532683
437795 83 17774725264781050889
44802255 64 18273495685159772071
504843 32 17274818112440416959
58083652 198 16371283454193853175
58902169 19 14477243781789145449
59682541 35 11674882225700079430
6289498 60 18339913918292150640
9962374 69 12540987364025093275
999808 66 11386363734167062803

> <PUBCHEM_SHAPE_MULTIPOLES>
601.06
29.54
3.44
1.54
30.32
2.87
0.08
19.9
0.09
-9
-1.45
0.52
0.4
4.14

> <PUBCHEM_SHAPE_SELFOVERLAP>
1297.187

> <PUBCHEM_SHAPE_VOLUME>
329.6

> <PUBCHEM_COORDINATE_TYPE>
2
5
10

$$$$
51039094
  -OEChem-11282412143D

 60 65  0     0  0  0  0  0  0999 V2000
   -4.6626   -4.0854   -0.3931 O   0  0  0  0  0  0  0  0  0  0  0  0
    4.1538    2.1769   -0.0910 O   0  0  0  0  0  0  0  0  0  0  0  0
   -2.9639   -2.6748    0.1875 N   0  0  0  0  0  0  0  0  0  0  0  0
   -5.1662   -1.8611   -0.2721 N   0  0  0  0  0  0  0  0  0  0  0  0
   -1.3089    1.4551   -0.7999 N   0  0  0  0  0  0  0  0  0  0  0  0
   -4.5809    3.6197    0.5186 N   0  0  0  0  0  0  0  0  0  0  0  0
   -2.2731    3.5051   -0.1652 N   0  0  0  0  0  0  0  0  0  0  0  0
    6.6365   -1.0903   -0.1861 N   0  0  0  0  0  0  0  0  0  0  0  0
    5.3856   -2.3562    1.1464 N   0  0  0  0  0  0  0  0  0  0  0  0
    7.3092   -2.2638   -0.0845 N   0  0  0  0  0  0  0  0  0  0  0  0
   -2.3963   -4.0323    0.0877 C   0  0  0  0  0  0  0  0  0  0  0  0
   -3.6147   -4.9416    0.0436 C   0  0  0  0  0  0  0  0  0  0  0  0
   -1.5164   -4.3075    1.3022 C   0  0  0  0  0  0  0  0  0  0  0  0
   -1.5739   -4.1153   -1.2017 C   0  0  0  0  0  0  0  0  0  0  0  0
   -4.2102   -2.8226   -0.1424 C   0  0  0  0  0  0  0  0  0  0  0  0
   -5.0118   -0.4839   -0.0752 C   0  0  0  0  0  0  0  0  0  0  0  0
   -3.6370    1.5100   -0.1217 C   0  0  0  0  0  0  0  0  0  0  0  0
   -3.7859    0.1265   -0.3209 C   0  0  0  0  0  0  0  0  0  0  0  0
   -6.0835    0.2834    0.3675 C   0  0  0  0  0  0  0  0  0  0  0  0
   -4.7121    2.2957    0.3250 C   0  0  0  0  0  0  0  0  0  0  0  0
   -2.4390    2.1816   -0.3488 C   0  0  0  0  0  0  0  0  0  0  0  0
   -5.9275    1.6587    0.5632 C   0  0  0  0  0  0  0  0  0  0  0  0
    0.0706    1.6398   -0.6169 C   0  0  0  0  0  0  0  0  0  0  0  0
    1.9159    2.4254    0.7301 C   0  0  0  0  0  0  0  0  0  0  0  0
    0.5451    2.2428    0.5479 C   0  0  0  0  0  0  0  0  0  0  0  0
    2.8121    2.0052   -0.2526 C   0  0  0  0  0  0  0  0  0  0  0  0
    0.9668    1.2198   -1.5997 C   0  0  0  0  0  0  0  0  0  0  0  0
    2.3376    1.4024   -1.4177 C   0  0  0  0  0  0  0  0  0  0  0  0
   -3.3687    4.1524    0.2629 C   0  0  0  0  0  0  0  0  0  0  0  0
    2.4061    3.0735    1.9827 C   0  0  0  0  0  0  0  0  0  0  0  0
    4.9484    1.0658   -0.0927 C   0  0  0  0  0  0  0  0  0  0  0  0
    4.6091   -0.0375    0.6041 C   0  0  0  0  0  0  0  0  0  0  0  0
    5.4657   -1.1750    0.5757 C   0  0  0  0  0  0  0  0  0  0  0  0
    6.1708    1.1267   -0.8762 C   0  0  0  0  0  0  0  0  0  0  0  0
    6.9804    0.0560   -0.9048 C   0  0  0  0  0  0  0  0  0  0  0  0
    6.5190   -2.9752    0.7181 C   0  0  0  0  0  0  0  0  0  0  0  0
   -3.8907   -5.3418    1.0256 H   0  0  0  0  0  0  0  0  0  0  0  0
   -3.5039   -5.7775   -0.6541 H   0  0  0  0  0  0  0  0  0  0  0  0
   -2.0804   -4.1912    2.2348 H   0  0  0  0  0  0  0  0  0  0  0  0
   -1.1113   -5.3247    1.2752 H   0  0  0  0  0  0  0  0  0  0  0  0
   -0.6754   -3.6062    1.3465 H   0  0  0  0  0  0  0  0  0  0  0  0
   -1.1388   -5.1124   -1.3290 H   0  0  0  0  0  0  0  0  0  0  0  0
   -2.1889   -3.9003   -2.0832 H   0  0  0  0  0  0  0  0  0  0  0  0
   -0.7559   -3.3858   -1.1933 H   0  0  0  0  0  0  0  0  0  0  0  0
   -6.1252   -2.1678   -0.4064 H   0  0  0  0  0  0  0  0  0  0  0  0
   -2.9556   -0.4543   -0.7061 H   0  0  0  0  0  0  0  0  0  0  0  0
   -7.0498   -0.1734    0.5664 H   0  0  0  0  0  0  0  0  0  0  0  0
   -6.7820    2.2367    0.9103 H   0  0  0  0  0  0  0  0  0  0  0  0
   -1.5293    0.8142   -1.5573 H   0  0  0  0  0  0  0  0  0  0  0  0
   -0.1454    2.5596    1.3258 H   0  0  0  0  0  0  0  0  0  0  0  0
    0.6105    0.7510   -2.5135 H   0  0  0  0  0  0  0  0  0  0  0  0
    3.0208    1.0789   -2.1985 H   0  0  0  0  0  0  0  0  0  0  0  0
   -3.2695    5.2194    0.4208 H   0  0  0  0  0  0  0  0  0  0  0  0
    1.5813    3.4156    2.6169 H   0  0  0  0  0  0  0  0  0  0  0  0
    3.0189    3.9495    1.7451 H   0  0  0  0  0  0  0  0  0  0  0  0
    3.0029    2.3659    2.5674 H   0  0  0  0  0  0  0  0  0  0  0  0
    3.7089   -0.0941    1.2061 H   0  0  0  0  0  0  0  0  0  0  0  0
    6.4090    2.0311   -1.4234 H   0  0  0  0  0  0  0  0  0  0  0  0
    7.9055    0.0332   -1.4675 H   0  0  0  0  0  0  0  0  0  0  0  0
    6.7812   -3.9838    1.0007 H   0  0  0  0  0  0  0  0  0  0  0  0
  1 12  1  0  0  0  0
  1 15  1  0  0  0  0
  2 26  1  0  0  0  0
  2 31  1  0  0  0  0
  3 11  1  0  0  0  0
  3 15  2  0  0  0  0
  4 15  1  0  0  0  0
  4 16  1  0  0  0  0
  4 45  1  0  0  0  0
  5 21  1  0  0  0  0
  5 23  1  0  0  0  0
  5 49  1  0  0  0  0
  6 20  1  0  0  0  0
  6 29  2  0  0  0  0
  7 21  2  0  0  0  0
  7 29  1  0  0  0  0
  8 10  1  0  0  0  0
  8 33  1  0  0  0  0
  8 35  1  0  0  0  0
  9 33  2  0  0  0  0
  9 36  1  0  0  0  0
 10 36  2  0  0  0  0
 11 12  1  0  0  0  0
 11 13  1  0  0  0  0
 11 14  1  0  0  0  0
 12 37  1  0  0  0  0
 12 38  1  0  0  0  0
 13 39  1  0  0  0  0
 13 40  1  0  0  0  0
 13 41  1  0  0  0  0
 14 42  1  0  0  0  0
 14 43  1  0  0  0  0
 14 44  1  0  0  0  0
 16 18  2  0  0  0  0
 16 19  1  0  0  0  0
 17 18  1  0  0  0  0
 17 20  2  0  0  0  0
 17 21  1  0  0  0  0
 18 46  1  0  0  0  0
 19 22  2  0  0  0  0
 19 47  1  0  0  0  0
 20 22  1  0  0  0  0
 22 48  1  0  0  0  0
 23 25  2  0  0  0  0
 23 27  1  0  0  0  0
 24 25  1  0  0  0  0
 24 26  2  0  0  0  0
 24 30  1  0  0  0  0
 25 50  1  0  0  0  0
 26 28  1  0  0  0  0
 27 28  2  0  0  0  0
 27 51  1  0  0  0  0
 28 52  1  0  0  0  0
 29 53  1  0  0  0  0
 30 54  1  0  0  0  0
 30 55  1  0  0  0  0
 30 56  1  0  0  0  0
 31 32  2  0  0  0  0
 31 34  1  0  0  0  0
 32 33  1  0  0  0  0
 32 57  1  0  0  0  0
 34 35  2  0  0  0  0
 34 58  1  0  0  0  0
 35 59  1  0  0  0  0
 36 60  1  0  0  0  0
M  END
> <PUBCHEM_COMPOUND_CID>
51039094

> <PUBCHEM_CONFORMER_RMSD>
1.4

> <PUBCHEM_CONFORMER_DIVERSEORDER>
1
28
69
59
47
68
81
67
35
14
72
7
24
60
82
77
20
54
71
78
21
53
90
18
87
2
75
30
86
84
40
66
93
55
25
64
10
88
58
65
43
70
52
89
15
27
39
36
34
31
38
74
85
76
12
5
26
62
92
42
11
61
50
80
79
6
19
57
45
29
4
83
51
48
91
46
63
8
41
16
37
17
44
3
33
49
13
56
9
73
32
22
23

> <PUBCHEM_MMFF94_PARTIAL_CHARGES>
46
1 -0.43
10 -0.71
11 0.25
12 0.28
15 0.65
16 0.1
18 -0.15
19 -0.15
2 -0.16
20 0.31
21 0.41
22 -0.15
23 0.1
24 -0.14
25 -0.15
26 0.08
27 -0.15
28 -0.15
29 0.47
3 -0.7
30 0.14
31 0.08
32 -0.11
33 0.14
34 -0.15
35 -0.18
36 0.37
4 -0.55
45 0.4
46 0.15
47 0.15
48 0.15
49 0.4
5 -0.6
50 0.15
51 0.15
52 0.15
53 0.15
57 0.15
58 0.15
59 0.15
6 -0.62
60 0.15
7 -0.62
8 0.6
9 -0.57

> <PUBCHEM_EFFECTIVE_ROTOR_COUNT>
6.6

> <PUBCHEM_PHARMACOPHORE_FEATURES>
15
1 2 acceptor
1 4 donor
1 5 donor
3 11 13 14 hydrophobe
3 3 4 15 cation
3 5 7 21 cation
3 6 7 29 cation
3 8 9 33 cation
3 9 10 36 cation
5 1 3 11 12 15 rings
5 8 9 10 33 36 rings
6 16 17 18 19 20 22 rings
6 23 24 25 26 27 28 rings
6 6 7 17 20 21 29 rings
6 8 31 32 33 34 35 rings

> <PUBCHEM_HEAVY_ATOM_COUNT>
36

> <PUBCHEM_ATOM_DEF_STEREO_COUNT>
0

> <PUBCHEM_ATOM_UDEF_STEREO_COUNT>
0

> <PUBCHEM_BOND_DEF_STEREO_COUNT>
0

> <PUBCHEM_BOND_UDEF_STEREO_COUNT>
0

> <PUBCHEM_ISOTOPIC_ATOM_COUNT>
0

> <PUBCHEM_COMPONENT_COUNT>
1

> <PUBCHEM_CACTVS_TAUTO_COUNT>
6

> <PUBCHEM_CONFORMER_ID>
030ACB7600000001

> <PUBCHEM_MMFF94_ENERGY>
129.9838

> <PUBCHEM_FEATURE_SELFOVERLAP>
79.132

> <PUBCHEM_SHAPE_FINGERPRINT>
10305334 12 18341614777033349991
10319926 262 18272362053589168305
10462674 125 15187927639692576974
10940486 97 18261119581734336517
11135609 99 18410290273752644726
11387372 6 18410012122125703031
11524674 6 17632293458776023037
117089 54 17755310307227145523
12128747 34 18268708479881983782
13383668 90 17169838760875253942
1361 4 18411701023900042524
13782708 43 18060418049140986741
14040221 299 18199472073793617534
14866123 147 18410573981389675579
15001296 14 18115858766860501050
15320467 1 18338515231483604402
15439362 3 17471287354612377309
15467298 65 18334008394026178770
15728490 83 18045790237230354827
15799311 1 18337123293181550244
15911013 46 18263921206323277308
19301676 85 18195235840629921663
19311894 1 18337389474027964603
21133410 52 15536702752002422045
21703447 108 17981600778154066760
229767 44 18409450258893933279
23516275 137 17901127229805846610
23522609 53 18047504191143367460
4073 2 18267020738387637096
4435113 14 18059306374614020462
45266715 3 18124582103944415069
563151 74 15553350080476259773
5912855 24 18193001640895421852
7970288 3 18049722120585447359
8863177 126 18342174522645795096
9896288 288 18340779131312075737

> <PUBCHEM_SHAPE_MULTIPOLES>
689.28
18.7
6.95
1.15
22.77
6.87
-0.06
6.94
-0.8
-8.4
-1.09
0.89
-0.17
-1.33

> <PUBCHEM_SHAPE_SELFOVERLAP>
1541.003

> <PUBCHEM_SHAPE_VOLUME>
364.9

> <PUBCHEM_COORDINATE_TYPE>
2
5
10

$$$$
5329102
  -OEChem-11282412143D

 56 58  0     0  0  0  0  0  0999 V2000
    7.3421   -1.9332    2.0237 F   0  0  0  0  0  0  0  0  0  0  0  0
   -3.1676    1.7851   -0.8482 O   0  0  0  0  0  0  0  0  0  0  0  0
    2.1660    1.2214   -1.8222 O   0  0  0  0  0  0  0  0  0  0  0  0
   -6.8561   -0.7407   -0.0641 N   0  0  0  0  0  0  0  0  0  0  0  0
    0.6750    1.7829    0.9513 N   0  0  0  0  0  0  0  0  0  0  0  0
   -3.1485   -0.4445   -0.2615 N   0  0  0  0  0  0  0  0  0  0  0  0
    4.4453    0.6024   -1.8711 N   0  0  0  0  0  0  0  0  0  0  0  0
   -5.5025   -0.4874    0.4124 C   0  0  0  0  0  0  0  0  0  0  0  0
   -1.1875    0.9254    0.0980 C   0  0  0  0  0  0  0  0  0  0  0  0
   -0.1856   -0.0763    0.0942 C   0  0  0  0  0  0  0  0  0  0  0  0
    0.9279    0.4914    0.6216 C   0  0  0  0  0  0  0  0  0  0  0  0
   -4.4965   -0.7178   -0.7057 C   0  0  0  0  0  0  0  0  0  0  0  0
   -0.6279    2.0648    0.6329 C   0  0  0  0  0  0  0  0  0  0  0  0
   -7.8331   -0.4842    0.9960 C   0  0  0  0  0  0  0  0  0  0  0  0
   -6.9840   -2.1164   -0.5491 C   0  0  0  0  0  0  0  0  0  0  0  0
   -2.5446    0.8201   -0.3592 C   0  0  0  0  0  0  0  0  0  0  0  0
    3.2742    0.0935    0.0284 C   0  0  0  0  0  0  0  0  0  0  0  0
    2.2519    0.0047    0.8814 C   0  0  0  0  0  0  0  0  0  0  0  0
    4.6466   -0.3695    0.2033 C   0  0  0  0  0  0  0  0  0  0  0  0
   -0.3372   -1.4640   -0.3924 C   0  0  0  0  0  0  0  0  0  0  0  0
    5.3142   -0.0357   -0.9788 C   0  0  0  0  0  0  0  0  0  0  0  0
   -1.1962    3.4047    0.8793 C   0  0  0  0  0  0  0  0  0  0  0  0
    3.1617    0.7243   -1.3294 C   0  0  0  0  0  0  0  0  0  0  0  0
   -7.7189    0.9391    1.5152 C   0  0  0  0  0  0  0  0  0  0  0  0
   -8.3720   -2.3738   -1.1106 C   0  0  0  0  0  0  0  0  0  0  0  0
    5.3108   -1.0109    1.2317 C   0  0  0  0  0  0  0  0  0  0  0  0
    6.6499   -0.3230   -1.1800 C   0  0  0  0  0  0  0  0  0  0  0  0
    6.6648   -1.3116    1.0487 C   0  0  0  0  0  0  0  0  0  0  0  0
    7.3278   -0.9709   -0.1455 C   0  0  0  0  0  0  0  0  0  0  0  0
   -5.3780    0.5541    0.7277 H   0  0  0  0  0  0  0  0  0  0  0  0
   -5.2534   -1.1165    1.2775 H   0  0  0  0  0  0  0  0  0  0  0  0
   -4.4528   -1.7599   -1.0307 H   0  0  0  0  0  0  0  0  0  0  0  0
   -4.7212   -0.0902   -1.5756 H   0  0  0  0  0  0  0  0  0  0  0  0
    1.3303    2.4355    1.3618 H   0  0  0  0  0  0  0  0  0  0  0  0
   -8.8534   -0.5770    0.6102 H   0  0  0  0  0  0  0  0  0  0  0  0
   -7.7276   -1.1895    1.8300 H   0  0  0  0  0  0  0  0  0  0  0  0
   -6.3145   -2.3050   -1.3923 H   0  0  0  0  0  0  0  0  0  0  0  0
   -6.7537   -2.8521    0.2315 H   0  0  0  0  0  0  0  0  0  0  0  0
    2.4003   -0.4713    1.8477 H   0  0  0  0  0  0  0  0  0  0  0  0
   -2.6730   -1.1951    0.2245 H   0  0  0  0  0  0  0  0  0  0  0  0
   -0.7812   -2.1027    0.3774 H   0  0  0  0  0  0  0  0  0  0  0  0
    0.6360   -1.8985   -0.6478 H   0  0  0  0  0  0  0  0  0  0  0  0
   -0.9426   -1.5137   -1.3026 H   0  0  0  0  0  0  0  0  0  0  0  0
   -0.5335    4.0203    1.4967 H   0  0  0  0  0  0  0  0  0  0  0  0
   -1.3582    3.9310   -0.0668 H   0  0  0  0  0  0  0  0  0  0  0  0
   -2.1560    3.3290    1.4005 H   0  0  0  0  0  0  0  0  0  0  0  0
   -8.6012    1.1790    2.1197 H   0  0  0  0  0  0  0  0  0  0  0  0
   -7.6768    1.6690    0.6994 H   0  0  0  0  0  0  0  0  0  0  0  0
   -6.8511    1.0794    2.1671 H   0  0  0  0  0  0  0  0  0  0  0  0
   -9.1279   -2.4792   -0.3264 H   0  0  0  0  0  0  0  0  0  0  0  0
   -8.6838   -1.5838   -1.8026 H   0  0  0  0  0  0  0  0  0  0  0  0
   -8.3727   -3.3160   -1.6707 H   0  0  0  0  0  0  0  0  0  0  0  0
    4.7255    0.9284   -2.7887 H   0  0  0  0  0  0  0  0  0  0  0  0
    4.8109   -1.2785    2.1559 H   0  0  0  0  0  0  0  0  0  0  0  0
    7.1591   -0.0603   -2.1002 H   0  0  0  0  0  0  0  0  0  0  0  0
    8.3801   -1.2163   -0.2612 H   0  0  0  0  0  0  0  0  0  0  0  0
  1 28  1  0  0  0  0
  2 16  2  0  0  0  0
  3 23  2  0  0  0  0
  4  8  1  0  0  0  0
  4 14  1  0  0  0  0
  4 15  1  0  0  0  0
  5 11  1  0  0  0  0
  5 13  1  0  0  0  0
  5 34  1  0  0  0  0
  6 12  1  0  0  0  0
  6 16  1  0  0  0  0
  6 40  1  0  0  0  0
  7 21  1  0  0  0  0
  7 23  1  0  0  0  0
  7 53  1  0  0  0  0
  8 12  1  0  0  0  0
  8 30  1  0  0  0  0
  8 31  1  0  0  0  0
  9 10  1  0  0  0  0
  9 13  2  0  0  0  0
  9 16  1  0  0  0  0
 10 11  2  0  0  0  0
 10 20  1  0  0  0  0
 11 18  1  0  0  0  0
 12 32  1  0  0  0  0
 12 33  1  0  0  0  0
 13 22  1  0  0  0  0
 14 24  1  0  0  0  0
 14 35  1  0  0  0  0
 14 36  1  0  0  0  0
 15 25  1  0  0  0  0
 15 37  1  0  0  0  0
 15 38  1  0  0  0  0
 17 18  2  0  0  0  0
 17 19  1  0  0  0  0
 17 23  1  0  0  0  0
 18 39  1  0  0  0  0
 19 21  2  0  0  0  0
 19 26  1  0  0  0  0
 20 41  1  0  0  0  0
 20 42  1  0  0  0  0
 20 43  1  0  0  0  0
 21 27  1  0  0  0  0
 22 44  1  0  0  0  0
 22 45  1  0  0  0  0
 22 46  1  0  0  0  0
 24 47  1  0  0  0  0
 24 48  1  0  0  0  0
 24 49  1  0  0  0  0
 25 50  1  0  0  0  0
 25 51  1  0  0  0  0
 25 52  1  0  0  0  0
 26 28  2  0  0  0  0
 26 54  1  0  0  0  0
 27 29  2  0  0  0  0
 27 55  1  0  0  0  0
 28 29  1  0  0  0  0
 29 56  1  0  0  0  0
M  END
> <PUBCHEM_COMPOUND_CID>
5329102

> <PUBCHEM_CONFORMER_RMSD>
1

> <PUBCHEM_CONFORMER_DIVERSEORDER>
3
23
14
32
15
35
36
13
20
17
38
34
29
37
11
41
39
8
5
33
10
1
16
30
9
2
4
40
22
7
6
28
12
24
18
26
27
31
19
25
21

> <PUBCHEM_MMFF94_PARTIAL_CHARGES>
34
1 -0.19
10 -0.18
11 -0.2
12 0.3
13 -0.33
14 0.27
15 0.27
16 0.72
17 -0.01
18 -0.11
19 0.03
2 -0.57
20 0.18
21 0.12
22 0.18
23 0.62
26 -0.15
27 -0.15
28 0.19
29 -0.15
3 -0.57
34 0.27
39 0.15
4 -0.81
40 0.37
5 0.03
53 0.37
54 0.15
55 0.15
56 0.15
6 -0.73
7 -0.55
8 0.27
9 -0.09

> <PUBCHEM_EFFECTIVE_ROTOR_COUNT>
8.2

> <PUBCHEM_PHARMACOPHORE_FEATURES>
10
1 2 acceptor
1 3 acceptor
1 4 cation
1 5 cation
1 5 donor
1 6 donor
1 7 donor
5 5 9 10 11 13 rings
5 7 17 19 21 23 rings
6 19 21 26 27 28 29 rings

> <PUBCHEM_HEAVY_ATOM_COUNT>
29

> <PUBCHEM_ATOM_DEF_STEREO_COUNT>
0

> <PUBCHEM_ATOM_UDEF_STEREO_COUNT>
0

> <PUBCHEM_BOND_DEF_STEREO_COUNT>
1

> <PUBCHEM_BOND_UDEF_STEREO_COUNT>
0

> <PUBCHEM_ISOTOPIC_ATOM_COUNT>
0

> <PUBCHEM_COMPONENT_COUNT>
1

> <PUBCHEM_CACTVS_TAUTO_COUNT>
6

> <PUBCHEM_CONFORMER_ID>
005150CE00000003

> <PUBCHEM_MMFF94_ENERGY>
67.3697

> <PUBCHEM_FEATURE_SELFOVERLAP>
50.835

> <PUBCHEM_SHAPE_FINGERPRINT>
10 15 14620793807845153434
10299344 5 18261115179835209019
11297750 10 11525465161715668841
11386260 185 14851614284656013006
11963148 33 18341888602236366335
12035758 1 17060611214082227294
12166972 35 18113620092836696276
12236239 1 18114744837734452192
13673619 4 18410571808310401037
13862211 1 18413387657293372491
14068700 675 18410576192833960316
14294032 229 18125175843917468385
150020 25 15140680302529163619
15003188 100 15140968378474749068
15131766 46 13900469712233545466
15183329 4 17095518500487427307
15301273 46 17060341799120482763
21150785 3 17676491653206981766
21267235 1 18413390938242120320
21315759 40 18407762547347721615
21521239 73 17312819373236748218
21792934 111 18202557376378000761
21792961 116 18261384500117730157
221357 26 16370440056013813412
22224240 67 15267340716947589901
22956985 138 17907581325267054822
23035841 295 18409167718939425827
23522609 53 18193305020933686381
23559900 14 17096093600634505193
23569917 315 18188772730930359418
23576562 1 15648179780508506935
249057 3 16805608104669976795
3004659 81 18187080680526914610
3383291 50 17774722060841176903
4098825 35 17168137889427992853
4169191 19 11312062041556035723
4340502 62 14405189481927764900
439807 62 18187082858328690691
5219985 9 18410293618862372049
5283156 175 18186522085564862409
57527293 21 16987696010207978022
59682541 52 15647323122708980634

> <PUBCHEM_SHAPE_MULTIPOLES>
557.87
24.61
2.27
1.46
21.1
1.12
0.03
-17.06
-3.59
2.97
-0.23
-1.76
-0.08
-2.6

> <PUBCHEM_SHAPE_SELFOVERLAP>
1194.901

> <PUBCHEM_SHAPE_VOLUME>
314.6

> <PUBCHEM_COORDINATE_TYPE>
2
5
10

$$$$
5291
  -OEChem-11282412143D

 68 72  0     0  0  0  0  0  0999 V2000
   -0.8276    0.2486   -1.0418 O   0  0  0  0  0  0  0  0  0  0  0  0
    6.4576    0.2661   -0.6555 N   0  0  0  0  0  0  0  0  0  0  0  0
    8.5148   -0.1616    1.3305 N   0  0  0  0  0  0  0  0  0  0  0  0
   -0.1066   -1.8326   -0.2329 N   0  0  0  0  0  0  0  0  0  0  0  0
   -4.9447   -1.8876   -0.2704 N   0  0  0  0  0  0  0  0  0  0  0  0
   -4.3746    0.3576    0.1045 N   0  0  0  0  0  0  0  0  0  0  0  0
   -6.6079   -0.2578   -0.5599 N   0  0  0  0  0  0  0  0  0  0  0  0
   -2.8521    4.8337    0.2988 N   0  0  0  0  0  0  0  0  0  0  0  0
    6.1553    0.3240    0.7799 C   0  0  0  0  0  0  0  0  0  0  0  0
    7.8492    0.6633   -0.9021 C   0  0  0  0  0  0  0  0  0  0  0  0
    7.1228   -0.5578    1.5768 C   0  0  0  0  0  0  0  0  0  0  0  0
    8.8175   -0.2175   -0.1048 C   0  0  0  0  0  0  0  0  0  0  0  0
    5.5353    1.1080   -1.4148 C   0  0  0  0  0  0  0  0  0  0  0  0
    9.4364   -1.0051    2.0887 C   0  0  0  0  0  0  0  0  0  0  0  0
    4.1042    0.6761   -1.2347 C   0  0  0  0  0  0  0  0  0  0  0  0
    3.7827   -0.6720   -1.3051 C   0  0  0  0  0  0  0  0  0  0  0  0
    3.1263    1.6331   -1.0017 C   0  0  0  0  0  0  0  0  0  0  0  0
    2.4565   -1.0715   -1.1393 C   0  0  0  0  0  0  0  0  0  0  0  0
    1.8002    1.2338   -0.8357 C   0  0  0  0  0  0  0  0  0  0  0  0
    1.4653   -0.1185   -0.9046 C   0  0  0  0  0  0  0  0  0  0  0  0
    0.0830   -0.5355   -0.7298 C   0  0  0  0  0  0  0  0  0  0  0  0
   -1.3242   -2.5126    0.0151 C   0  0  0  0  0  0  0  0  0  0  0  0
   -3.7215   -2.5414   -0.0031 C   0  0  0  0  0  0  0  0  0  0  0  0
   -2.5228   -1.8710   -0.2463 C   0  0  0  0  0  0  0  0  0  0  0  0
   -3.7034   -3.8430    0.4979 C   0  0  0  0  0  0  0  0  0  0  0  0
   -1.2879   -3.8040    0.5124 C   0  0  0  0  0  0  0  0  0  0  0  0
   -2.4866   -4.4744    0.7558 C   0  0  0  0  0  0  0  0  0  0  0  0
   -4.9723   -4.5838    0.7689 C   0  0  0  0  0  0  0  0  0  0  0  0
   -5.3266   -0.5337   -0.2407 C   0  0  0  0  0  0  0  0  0  0  0  0
   -4.7751    1.6458    0.1230 C   0  0  0  0  0  0  0  0  0  0  0  0
   -3.7560    2.5992    0.4912 C   0  0  0  0  0  0  0  0  0  0  0  0
   -6.0569    2.0547   -0.1837 C   0  0  0  0  0  0  0  0  0  0  0  0
   -6.9398    1.0495   -0.5211 C   0  0  0  0  0  0  0  0  0  0  0  0
   -2.7243    2.2490    1.3556 C   0  0  0  0  0  0  0  0  0  0  0  0
   -3.7742    3.8929   -0.0052 C   0  0  0  0  0  0  0  0  0  0  0  0
   -1.7569    3.1894    1.6923 C   0  0  0  0  0  0  0  0  0  0  0  0
   -1.8648    4.4564    1.1418 C   0  0  0  0  0  0  0  0  0  0  0  0
    6.2161    1.3575    1.1487 H   0  0  0  0  0  0  0  0  0  0  0  0
    5.1467   -0.0373    1.0060 H   0  0  0  0  0  0  0  0  0  0  0  0
    8.0827    0.5537   -1.9681 H   0  0  0  0  0  0  0  0  0  0  0  0
    8.0090    1.7178   -0.6393 H   0  0  0  0  0  0  0  0  0  0  0  0
    6.8911   -0.4479    2.6432 H   0  0  0  0  0  0  0  0  0  0  0  0
    6.9627   -1.6124    1.3143 H   0  0  0  0  0  0  0  0  0  0  0  0
    8.7669   -1.2503   -0.4758 H   0  0  0  0  0  0  0  0  0  0  0  0
    9.8378    0.1434   -0.2827 H   0  0  0  0  0  0  0  0  0  0  0  0
    5.6549    2.1619   -1.1291 H   0  0  0  0  0  0  0  0  0  0  0  0
    5.7622    1.0411   -2.4869 H   0  0  0  0  0  0  0  0  0  0  0  0
   10.4708   -0.6770    1.9372 H   0  0  0  0  0  0  0  0  0  0  0  0
    9.3641   -2.0606    1.8025 H   0  0  0  0  0  0  0  0  0  0  0  0
    9.2357   -0.9248    3.1628 H   0  0  0  0  0  0  0  0  0  0  0  0
    4.5361   -1.4277   -1.5094 H   0  0  0  0  0  0  0  0  0  0  0  0
    3.3744    2.6892   -0.9456 H   0  0  0  0  0  0  0  0  0  0  0  0
    2.2390   -2.1304   -1.2426 H   0  0  0  0  0  0  0  0  0  0  0  0
    1.0439    1.9918   -0.6479 H   0  0  0  0  0  0  0  0  0  0  0  0
    0.7149   -2.3706    0.0288 H   0  0  0  0  0  0  0  0  0  0  0  0
   -2.5694   -0.8966   -0.6987 H   0  0  0  0  0  0  0  0  0  0  0  0
   -0.3457   -4.3050    0.7161 H   0  0  0  0  0  0  0  0  0  0  0  0
   -2.4543   -5.4884    1.1455 H   0  0  0  0  0  0  0  0  0  0  0  0
   -5.7332   -2.5044   -0.4357 H   0  0  0  0  0  0  0  0  0  0  0  0
   -5.6194   -4.0112    1.4417 H   0  0  0  0  0  0  0  0  0  0  0  0
   -4.7836   -5.5486    1.2524 H   0  0  0  0  0  0  0  0  0  0  0  0
   -5.5050   -4.7850   -0.1664 H   0  0  0  0  0  0  0  0  0  0  0  0
   -6.3940    3.0829   -0.1521 H   0  0  0  0  0  0  0  0  0  0  0  0
   -7.9712    1.2730   -0.7724 H   0  0  0  0  0  0  0  0  0  0  0  0
   -2.6516    1.2546    1.7888 H   0  0  0  0  0  0  0  0  0  0  0  0
   -4.5283    4.2446   -0.7026 H   0  0  0  0  0  0  0  0  0  0  0  0
   -0.9444    2.9389    2.3645 H   0  0  0  0  0  0  0  0  0  0  0  0
   -1.1356    5.2260    1.3726 H   0  0  0  0  0  0  0  0  0  0  0  0
  1 21  2  0  0  0  0
  2  9  1  0  0  0  0
  2 10  1  0  0  0  0
  2 13  1  0  0  0  0
  3 11  1  0  0  0  0
  3 12  1  0  0  0  0
  3 14  1  0  0  0  0
  4 21  1  0  0  0  0
  4 22  1  0  0  0  0
  4 55  1  0  0  0  0
  5 23  1  0  0  0  0
  5 29  1  0  0  0  0
  5 59  1  0  0  0  0
  6 29  1  0  0  0  0
  6 30  2  0  0  0  0
  7 29  2  0  0  0  0
  7 33  1  0  0  0  0
  8 35  1  0  0  0  0
  8 37  2  0  0  0  0
  9 11  1  0  0  0  0
  9 38  1  0  0  0  0
  9 39  1  0  0  0  0
 10 12  1  0  0  0  0
 10 40  1  0  0  0  0
 10 41  1  0  0  0  0
 11 42  1  0  0  0  0
 11 43  1  0  0  0  0
 12 44  1  0  0  0  0
 12 45  1  0  0  0  0
 13 15  1  0  0  0  0
 13 46  1  0  0  0  0
 13 47  1  0  0  0  0
 14 48  1  0  0  0  0
 14 49  1  0  0  0  0
 14 50  1  0  0  0  0
 15 16  2  0  0  0  0
 15 17  1  0  0  0  0
 16 18  1  0  0  0  0
 16 51  1  0  0  0  0
 17 19  2  0  0  0  0
 17 52  1  0  0  0  0
 18 20  2  0  0  0  0
 18 53  1  0  0  0  0
 19 20  1  0  0  0  0
 19 54  1  0  0  0  0
 20 21  1  0  0  0  0
 22 24  2  0  0  0  0
 22 26  1  0  0  0  0
 23 24  1  0  0  0  0
 23 25  2  0  0  0  0
 24 56  1  0  0  0  0
 25 27  1  0  0  0  0
 25 28  1  0  0  0  0
 26 27  2  0  0  0  0
 26 57  1  0  0  0  0
 27 58  1  0  0  0  0
 28 60  1  0  0  0  0
 28 61  1  0  0  0  0
 28 62  1  0  0  0  0
 30 31  1  0  0  0  0
 30 32  1  0  0  0  0
 31 34  1  0  0  0  0
 31 35  2  0  0  0  0
 32 33  2  0  0  0  0
 32 63  1  0  0  0  0
 33 64  1  0  0  0  0
 34 36  2  0  0  0  0
 34 65  1  0  0  0  0
 35 66  1  0  0  0  0
 36 37  1  0  0  0  0
 36 67  1  0  0  0  0
 37 68  1  0  0  0  0
M  END
> <PUBCHEM_COMPOUND_CID>
5291

> <PUBCHEM_CONFORMER_RMSD>
1

> <PUBCHEM_CONFORMER_DIVERSEORDER>
1
86
183
155
18
49
271
197
51
136
137
264
53
161
199
59
223
60
118
279
56
163
275
127
135
154
220
196
244
114
219
200
150
221
277
145
88
139
280
283
140
75
232
43
186
249
78
133
207
238
250
132
201
243
191
102
71
260
176
187
97
164
205
255
92
110
209
106
178
3
162
265
134
213
151
72
57
228
65
23
192
251
174
138
41
204
120
242
93
100
47
165
107
158
144
214
274
46
156
113
119
37
143
245
273
50
177
281
87
45
227
152
123
224
35
171
278
32
95
44
58
235
188
80
89
52
141
157
248
284
175
40
190
246
193
166
236
74
230
101
179
215
268
14
83
131
104
239
167
267
19
234
85
254
5
229
206
36
269
153
160
194
129
108
79
68
226
67
173
122
266
55
17
180
142
61
54
112
257
76
94
225
64
272
211
185
217
121
149
195
20
169
98
147
261
105
262
259
48
212
22
27
263
222
208
128
148
117
168
33
170
15
130
25
62
90
84
256
21
4
276
241
126
270
38
282
26
124
202
252
2
109
198
111
172
77
115
28
10
181
182
203
6
231
237
31
184
69
146
13
81
247
159
82
91
210
258
7
189
29
253
70
66
218
42
103
30
11
233
73
96
63
39
240
34
16
99
9
216
12
125
116
8
24

> <PUBCHEM_MMFF94_PARTIAL_CHARGES>
51
1 -0.57
10 0.27
11 0.27
12 0.27
13 0.41
14 0.27
15 -0.14
16 -0.15
17 -0.15
18 -0.15
19 -0.15
2 -0.81
20 0.09
21 0.54
22 0.12
23 0.1
24 -0.15
25 -0.14
26 -0.15
27 -0.15
28 0.14
29 0.72
3 -0.81
30 0.31
32 -0.15
33 0.16
34 -0.15
35 0.16
36 -0.15
37 0.16
4 -0.55
5 -0.6
51 0.15
52 0.15
53 0.15
54 0.15
55 0.37
56 0.15
57 0.15
58 0.15
59 0.4
6 -0.62
63 0.15
64 0.15
65 0.15
66 0.15
67 0.15
68 0.15
7 -0.62
8 -0.62
9 0.27

> <PUBCHEM_EFFECTIVE_ROTOR_COUNT>
9.2

> <PUBCHEM_PHARMACOPHORE_FEATURES>
13
1 1 acceptor
1 2 cation
1 3 cation
1 4 donor
1 5 donor
1 6 acceptor
1 8 acceptor
4 5 6 7 29 cation
6 15 16 17 18 19 20 rings
6 2 3 9 10 11 12 rings
6 22 23 24 25 26 27 rings
6 6 7 29 30 32 33 rings
6 8 31 34 35 36 37 rings

> <PUBCHEM_HEAVY_ATOM_COUNT>
37

> <PUBCHEM_ATOM_DEF_STEREO_COUNT>
0

> <PUBCHEM_ATOM_UDEF_STEREO_COUNT>
0

> <PUBCHEM_BOND_DEF_STEREO_COUNT>
0

> <PUBCHEM_BOND_UDEF_STEREO_COUNT>
0

> <PUBCHEM_ISOTOPIC_ATOM_COUNT>
0

> <PUBCHEM_COMPONENT_COUNT>
1

> <PUBCHEM_CACTVS_TAUTO_COUNT>
6

> <PUBCHEM_CONFORMER_ID>
000014AB00000001

> <PUBCHEM_MMFF94_ENERGY>
127.2169

> <PUBCHEM_FEATURE_SELFOVERLAP>
65.975

> <PUBCHEM_SHAPE_FINGERPRINT>
100830 39 18410860958077041852
10951579 204 18197238974742643908
11007060 377 18269849622327105530
11136131 41 18044936770771598434
11621639 254 13254505501323013082
12104220 1 18410571777702331213
12107183 9 18186798084917518398
12128747 34 18130230354994079454
12144603 126 17894916257231727846
12202916 173 18131347506142367149
13947947 74 18272087151057125825
15021287 119 16732703852714263934
15328829 1 17967526866235903152
15351339 4 18338230471684522579
15400415 2 17762632689221619973
15419008 47 17703511077306660712
15776043 110 17967251962395703306
15890870 6 18335419046485918677
16112460 7 18114460063985995098
19611394 137 18201999945758235216
21133410 221 17845067714652049024
21639891 77 18130510820416437024
21792964 463 17608105478808388188
21859007 373 18202281416502593174
23522609 53 17605017917245182908
23569943 247 16661465382439943786
3504750 166 18339919432792631702
42626532 9 17974577093311653163
5047190 69 18343860034915745032
5085150 59 18342738516023217790
6201320 215 18059005086968776344
6371009 1 18409733936799028949
9981440 41 18191600661755950473

> <PUBCHEM_SHAPE_MULTIPOLES>
720.71
23.61
5.87
1.43
55.18
0.71
-0.37
0.19
-5.12
-14.21
-2.53
2.61
-0.31
-1.28

> <PUBCHEM_SHAPE_SELFOVERLAP>
1568.426

> <PUBCHEM_SHAPE_VOLUME>
390.1

> <PUBCHEM_COORDINATE_TYPE>
2
5
10

$$$$
10184653
  -OEChem-11282412143D

 59 62  0     1  0  0  0  0  0999 V2000
    6.7539    0.3545    2.5478 Cl  0  0  0  0  0  0  0  0  0  0  0  0
    7.5211    2.6146    0.7892 F   0  0  0  0  0  0  0  0  0  0  0  0
   -5.3715   -4.2782    0.3038 O   0  0  0  0  0  0  0  0  0  0  0  0
   -2.9503   -2.5342   -0.2451 O   0  0  0  0  0  0  0  0  0  0  0  0
   -0.9353    2.1239   -0.7148 O   0  0  0  0  0  0  0  0  0  0  0  0
   -2.2189    0.1647   -0.4919 N   0  0  0  0  0  0  0  0  0  0  0  0
    1.6135   -3.8702   -0.4124 N   0  0  0  0  0  0  0  0  0  0  0  0
    2.8723    0.0549   -0.7815 N   0  0  0  0  0  0  0  0  0  0  0  0
    3.3729   -2.2393   -0.6385 N   0  0  0  0  0  0  0  0  0  0  0  0
   -4.5571    5.4422    0.3871 N   0  0  0  0  0  0  0  0  0  0  0  0
   -3.3422   -3.2285    0.9341 C   0  0  1  0  0  0  0  0  0  0  0  0
   -4.4857   -2.5058    1.6030 C   0  0  0  0  0  0  0  0  0  0  0  0
   -3.9788   -4.5460    0.5424 C   0  0  0  0  0  0  0  0  0  0  0  0
   -5.6739   -2.9594    0.7786 C   0  0  0  0  0  0  0  0  0  0  0  0
   -1.6370   -2.1836   -0.3491 C   0  0  0  0  0  0  0  0  0  0  0  0
   -1.2604   -0.8508   -0.4717 C   0  0  0  0  0  0  0  0  0  0  0  0
   -0.6646   -3.1879   -0.3304 C   0  0  0  0  0  0  0  0  0  0  0  0
    1.0603   -1.5409   -0.5557 C   0  0  0  0  0  0  0  0  0  0  0  0
    0.6924   -2.8908   -0.4324 C   0  0  0  0  0  0  0  0  0  0  0  0
    0.0884   -0.5253   -0.5753 C   0  0  0  0  0  0  0  0  0  0  0  0
    2.4247   -1.2835   -0.6550 C   0  0  0  0  0  0  0  0  0  0  0  0
   -2.0100    1.5451   -0.6083 C   0  0  0  0  0  0  0  0  0  0  0  0
    2.9035   -3.4914   -0.5170 C   0  0  0  0  0  0  0  0  0  0  0  0
    4.0519    0.7015   -0.3795 C   0  0  0  0  0  0  0  0  0  0  0  0
   -3.2986    2.2997   -0.5893 C   0  0  0  0  0  0  0  0  0  0  0  0
   -4.5632    4.4538   -0.6865 C   0  0  0  0  0  0  0  0  0  0  0  0
   -3.3059    3.6365   -0.6897 C   0  0  0  0  0  0  0  0  0  0  0  0
    4.7386    0.2607    0.7519 C   0  0  0  0  0  0  0  0  0  0  0  0
    4.5370    1.7850   -1.1117 C   0  0  0  0  0  0  0  0  0  0  0  0
    5.9106    0.9032    1.1509 C   0  0  0  0  0  0  0  0  0  0  0  0
    5.7090    2.4277   -0.7125 C   0  0  0  0  0  0  0  0  0  0  0  0
   -5.4729    6.5415    0.0795 C   0  0  0  0  0  0  0  0  0  0  0  0
   -4.9197    4.8197    1.6612 C   0  0  0  0  0  0  0  0  0  0  0  0
    6.3958    1.9868    0.4187 C   0  0  0  0  0  0  0  0  0  0  0  0
   -2.5013   -3.3696    1.6234 H   0  0  0  0  0  0  0  0  0  0  0  0
   -4.5995   -2.8604    2.6341 H   0  0  0  0  0  0  0  0  0  0  0  0
   -4.3875   -1.4168    1.6112 H   0  0  0  0  0  0  0  0  0  0  0  0
   -3.9266   -5.2701    1.3621 H   0  0  0  0  0  0  0  0  0  0  0  0
   -3.5470   -4.9908   -0.3586 H   0  0  0  0  0  0  0  0  0  0  0  0
   -5.8211   -2.3149   -0.0947 H   0  0  0  0  0  0  0  0  0  0  0  0
   -6.6021   -2.9791    1.3564 H   0  0  0  0  0  0  0  0  0  0  0  0
   -0.9689   -4.2299   -0.2446 H   0  0  0  0  0  0  0  0  0  0  0  0
    0.4278    0.4946   -0.6584 H   0  0  0  0  0  0  0  0  0  0  0  0
   -3.1806   -0.1594   -0.4109 H   0  0  0  0  0  0  0  0  0  0  0  0
    2.3412    0.5841   -1.4678 H   0  0  0  0  0  0  0  0  0  0  0  0
    3.6406   -4.2849   -0.4999 H   0  0  0  0  0  0  0  0  0  0  0  0
   -4.2253    1.7442   -0.4913 H   0  0  0  0  0  0  0  0  0  0  0  0
   -4.5836    4.9625   -1.6600 H   0  0  0  0  0  0  0  0  0  0  0  0
   -5.4635    3.8259   -0.6556 H   0  0  0  0  0  0  0  0  0  0  0  0
   -2.3728    4.1855   -0.7933 H   0  0  0  0  0  0  0  0  0  0  0  0
    4.3612   -0.5741    1.3380 H   0  0  0  0  0  0  0  0  0  0  0  0
    4.0126    2.1386   -1.9958 H   0  0  0  0  0  0  0  0  0  0  0  0
    6.0871    3.2712   -1.2826 H   0  0  0  0  0  0  0  0  0  0  0  0
   -6.5060    6.1964   -0.0435 H   0  0  0  0  0  0  0  0  0  0  0  0
   -5.4529    7.2937    0.8762 H   0  0  0  0  0  0  0  0  0  0  0  0
   -5.1672    7.0543   -0.8394 H   0  0  0  0  0  0  0  0  0  0  0  0
   -4.8875    5.5596    2.4692 H   0  0  0  0  0  0  0  0  0  0  0  0
   -5.9250    4.3832    1.6397 H   0  0  0  0  0  0  0  0  0  0  0  0
   -4.2078    4.0344    1.9375 H   0  0  0  0  0  0  0  0  0  0  0  0
  1 30  1  0  0  0  0
  2 34  1  0  0  0  0
  3 13  1  0  0  0  0
  3 14  1  0  0  0  0
  4 11  1  0  0  0  0
  4 15  1  0  0  0  0
  5 22  2  0  0  0  0
  6 16  1  0  0  0  0
  6 22  1  0  0  0  0
  6 44  1  0  0  0  0
  7 19  1  0  0  0  0
  7 23  2  0  0  0  0
  8 21  1  0  0  0  0
  8 24  1  0  0  0  0
  8 45  1  0  0  0  0
  9 21  2  0  0  0  0
  9 23  1  0  0  0  0
 10 26  1  0  0  0  0
 10 32  1  0  0  0  0
 10 33  1  0  0  0  0
 11 12  1  0  0  0  0
 11 13  1  0  0  0  0
 11 35  1  0  0  0  0
 12 14  1  0  0  0  0
 12 36  1  0  0  0  0
 12 37  1  0  0  0  0
 13 38  1  0  0  0  0
 13 39  1  0  0  0  0
 14 40  1  0  0  0  0
 14 41  1  0  0  0  0
 15 16  2  0  0  0  0
 15 17  1  0  0  0  0
 16 20  1  0  0  0  0
 17 19  2  0  0  0  0
 17 42  1  0  0  0  0
 18 19  1  0  0  0  0
 18 20  2  0  0  0  0
 18 21  1  0  0  0  0
 20 43  1  0  0  0  0
 22 25  1  0  0  0  0
 23 46  1  0  0  0  0
 24 28  2  0  0  0  0
 24 29  1  0  0  0  0
 25 27  2  0  0  0  0
 25 47  1  0  0  0  0
 26 27  1  0  0  0  0
 26 48  1  0  0  0  0
 26 49  1  0  0  0  0
 27 50  1  0  0  0  0
 28 30  1  0  0  0  0
 28 51  1  0  0  0  0
 29 31  2  0  0  0  0
 29 52  1  0  0  0  0
 30 34  2  0  0  0  0
 31 34  1  0  0  0  0
 31 53  1  0  0  0  0
 32 54  1  0  0  0  0
 32 55  1  0  0  0  0
 32 56  1  0  0  0  0
 33 57  1  0  0  0  0
 33 58  1  0  0  0  0
 33 59  1  0  0  0  0
M  END
> <PUBCHEM_COMPOUND_CID>
10184653

> <PUBCHEM_CONFORMER_RMSD>
1

> <PUBCHEM_CONFORMER_DIVERSEORDER>
1
55
19
37
62
57
35
28
53
34
56
41
17
51
59
61
43
13
31
50
33
32
60
25
54
27
8
16
20
12
38
65
9
48
40
7
21
44
18
47
10
29
58
4
45
6
15
11
22
63
30
39
52
23
36
26
46
49
64
14
24
42
3
5
2

> <PUBCHEM_MMFF94_PARTIAL_CHARGES>
42
1 -0.18
10 -0.81
11 0.28
13 0.28
14 0.28
15 0.08
16 0.12
17 -0.15
19 0.31
2 -0.19
20 -0.15
21 0.41
22 0.62
23 0.47
24 0.1
25 -0.14
26 0.41
27 -0.29
28 -0.15
29 -0.15
3 -0.56
30 0.18
31 -0.15
32 0.27
33 0.27
34 0.19
4 -0.36
42 0.15
43 0.15
44 0.37
45 0.4
46 0.15
47 0.15
5 -0.57
50 0.15
51 0.15
52 0.15
53 0.15
6 -0.55
7 -0.62
8 -0.6
9 -0.62

> <PUBCHEM_EFFECTIVE_ROTOR_COUNT>
10

> <PUBCHEM_PHARMACOPHORE_FEATURES>
12
1 10 cation
1 3 acceptor
1 4 acceptor
1 5 acceptor
1 6 donor
1 8 donor
3 7 9 23 cation
3 8 9 21 cation
5 3 11 12 13 14 rings
6 15 16 17 18 19 20 rings
6 24 28 29 30 31 34 rings
6 7 9 18 19 21 23 rings

> <PUBCHEM_HEAVY_ATOM_COUNT>
34

> <PUBCHEM_ATOM_DEF_STEREO_COUNT>
1

> <PUBCHEM_ATOM_UDEF_STEREO_COUNT>
0

> <PUBCHEM_BOND_DEF_STEREO_COUNT>
1

> <PUBCHEM_BOND_UDEF_STEREO_COUNT>
0

> <PUBCHEM_ISOTOPIC_ATOM_COUNT>
0

> <PUBCHEM_COMPONENT_COUNT>
1

> <PUBCHEM_CACTVS_TAUTO_COUNT>
6

> <PUBCHEM_CONFORMER_ID>
009B67CD00000001

> <PUBCHEM_MMFF94_ENERGY>
118.3863

> <PUBCHEM_FEATURE_SELFOVERLAP>
61.069

> <PUBCHEM_SHAPE_FINGERPRINT>
10050765 1 18409731725397260590
102385 1 18338237050937012855
10581848 127 18267048157042201945
10675989 125 17765712421274760985
10816530 23 18120663422938000737
10939801 23 17974850889678323372
12107183 9 18190160323388426594
12741549 16 17460587263948438879
12788726 201 18115875276836333234
12925494 130 18339077065050983644
13140716 1 17687186800226601262
13383665 225 18190204393246121460
13540713 4 18271814480219722286
14028597 1 17603577578055265275
14068700 686 18341337759526122742
14190465 44 18336823074577052925
14294032 229 18338254728900680980
14394314 77 17618513515589478757
14395042 24 18187930642324558101
14790565 3 18049448033442953445
15400415 2 17976265634705014989
15439362 3 18123748656634030244
19309040 13 18059285444874715076
19427546 62 18049165458685693621
20238998 120 18194403527617411343
23845131 108 18193558857484026109
24771293 8 18127703836151030955
27425 322 17908984301971085317
469060 322 18266194995910524210
550186 72 18265899249300781597
57527585 21 18269534161279665167
6004065 56 17976261562775526063
653340 110 18410019840245178567
9555976 147 18191279677237576986
9777508 108 18337114441401685095
9849439 229 18338796689486291428
9896288 288 18408602587053135962
9961470 85 18268707200098131368

> <PUBCHEM_SHAPE_MULTIPOLES>
651.79
16.98
9.14
1.35
16.63
7.82
0.79
16.53
7.63
-22.03
1.12
1.11
0.38
1.78

> <PUBCHEM_SHAPE_SELFOVERLAP>
1393.544

> <PUBCHEM_SHAPE_VOLUME>
363.9

> <PUBCHEM_COORDINATE_TYPE>
2
5
10

$$$$
71496458
  -OEChem-11282412143D

 70 73  0     1  0  0  0  0  0999 V2000
    2.5800   -3.7798    0.1575 O   0  0  0  0  0  0  0  0  0  0  0  0
   -0.9619    1.1797   -2.0847 O   0  0  0  0  0  0  0  0  0  0  0  0
    4.0475    0.6100   -1.1047 N   0  0  3  0  0  0  0  0  0  0  0  0
   -5.1887    1.3569    0.4454 N   0  0  0  0  0  0  0  0  0  0  0  0
    5.8294    1.7155    1.9601 N   0  0  0  0  0  0  0  0  0  0  0  0
   -0.0813   -3.1358   -0.4783 N   0  0  0  0  0  0  0  0  0  0  0  0
    1.3654    1.2872   -1.7553 N   0  0  0  0  0  0  0  0  0  0  0  0
   -1.9103   -1.7423   -0.0110 N   0  0  0  0  0  0  0  0  0  0  0  0
   -2.1716   -4.1359   -0.1085 N   0  0  0  0  0  0  0  0  0  0  0  0
    4.4021    1.4970   -0.0162 C   0  0  0  0  0  0  0  0  0  0  0  0
    2.9986   -0.3240   -0.9514 C   0  0  0  0  0  0  0  0  0  0  0  0
    5.4401    0.8254    0.8736 C   0  0  0  0  0  0  0  0  0  0  0  0
   -3.0776    0.8453    0.9537 C   0  0  0  0  0  0  0  0  0  0  0  0
   -4.0141    1.8811    0.9361 C   0  0  0  0  0  0  0  0  0  0  0  0
   -3.7311   -0.3170    0.4568 C   0  0  0  0  0  0  0  0  0  0  0  0
    1.6841    0.0144   -1.2730 C   0  0  0  0  0  0  0  0  0  0  0  0
    3.2927   -1.6003   -0.4713 C   0  0  0  0  0  0  0  0  0  0  0  0
   -5.0275    0.0291    0.1530 C   0  0  0  0  0  0  0  0  0  0  0  0
    0.9578   -2.1997   -0.6343 C   0  0  0  0  0  0  0  0  0  0  0  0
    4.7738    0.6956   -2.3546 C   0  0  0  0  0  0  0  0  0  0  0  0
    2.2723   -2.5382   -0.3127 C   0  0  0  0  0  0  0  0  0  0  0  0
    0.6638   -0.9235   -1.1146 C   0  0  0  0  0  0  0  0  0  0  0  0
   -3.2269   -1.6470    0.2676 C   0  0  0  0  0  0  0  0  0  0  0  0
   -1.7752    1.1164    1.4181 C   0  0  0  0  0  0  0  0  0  0  0  0
   -3.7121    3.1796    1.3615 C   0  0  0  0  0  0  0  0  0  0  0  0
   -6.4231    2.0889    0.2595 C   0  0  0  0  0  0  0  0  0  0  0  0
    4.8213    1.7057    3.0218 C   0  0  0  0  0  0  0  0  0  0  0  0
    7.1361    1.3324    2.4981 C   0  0  0  0  0  0  0  0  0  0  0  0
   -1.4556   -2.9979   -0.1847 C   0  0  0  0  0  0  0  0  0  0  0  0
   -1.4588    2.4106    1.8467 C   0  0  0  0  0  0  0  0  0  0  0  0
   -2.4139    3.4249    1.8179 C   0  0  0  0  0  0  0  0  0  0  0  0
   -4.0689   -2.7353    0.3728 C   0  0  0  0  0  0  0  0  0  0  0  0
   -3.4803   -3.9673    0.1730 C   0  0  0  0  0  0  0  0  0  0  0  0
    0.1064    1.7789   -2.1200 C   0  0  0  0  0  0  0  0  0  0  0  0
    2.5390   -3.9651    1.5710 C   0  0  0  0  0  0  0  0  0  0  0  0
    0.1848    3.1933   -2.5880 C   0  0  0  0  0  0  0  0  0  0  0  0
   -0.9161    3.8415   -2.9811 C   0  0  0  0  0  0  0  0  0  0  0  0
    4.7986    2.4408   -0.4127 H   0  0  0  0  0  0  0  0  0  0  0  0
    3.4995    1.7632    0.5459 H   0  0  0  0  0  0  0  0  0  0  0  0
    5.0871   -0.1383    1.2603 H   0  0  0  0  0  0  0  0  0  0  0  0
    6.3121    0.5981    0.2448 H   0  0  0  0  0  0  0  0  0  0  0  0
    4.3161   -1.8763   -0.2286 H   0  0  0  0  0  0  0  0  0  0  0  0
   -5.8505   -0.5446   -0.2542 H   0  0  0  0  0  0  0  0  0  0  0  0
    4.1168    1.0398   -3.1601 H   0  0  0  0  0  0  0  0  0  0  0  0
    5.1799   -0.2828   -2.6331 H   0  0  0  0  0  0  0  0  0  0  0  0
    5.6158    1.3930   -2.2893 H   0  0  0  0  0  0  0  0  0  0  0  0
   -0.3482   -0.7246   -1.4201 H   0  0  0  0  0  0  0  0  0  0  0  0
   -1.0142    0.3427    1.4559 H   0  0  0  0  0  0  0  0  0  0  0  0
   -4.4510    3.9737    1.3414 H   0  0  0  0  0  0  0  0  0  0  0  0
   -6.7427    2.4779    1.2296 H   0  0  0  0  0  0  0  0  0  0  0  0
   -6.2374    2.9046   -0.4438 H   0  0  0  0  0  0  0  0  0  0  0  0
   -7.1899    1.4216   -0.1420 H   0  0  0  0  0  0  0  0  0  0  0  0
    0.2260   -4.1036   -0.4600 H   0  0  0  0  0  0  0  0  0  0  0  0
    2.1582    1.9192   -1.8432 H   0  0  0  0  0  0  0  0  0  0  0  0
    3.8541    2.0755    2.6682 H   0  0  0  0  0  0  0  0  0  0  0  0
    5.1203    2.3778    3.8347 H   0  0  0  0  0  0  0  0  0  0  0  0
    4.6755    0.7058    3.4470 H   0  0  0  0  0  0  0  0  0  0  0  0
    7.9082    1.4008    1.7236 H   0  0  0  0  0  0  0  0  0  0  0  0
    7.1347    0.3115    2.8972 H   0  0  0  0  0  0  0  0  0  0  0  0
    7.4385    2.0161    3.2992 H   0  0  0  0  0  0  0  0  0  0  0  0
   -0.4557    2.6253    2.2059 H   0  0  0  0  0  0  0  0  0  0  0  0
   -2.1463    4.4230    2.1553 H   0  0  0  0  0  0  0  0  0  0  0  0
   -5.1232   -2.6681    0.6100 H   0  0  0  0  0  0  0  0  0  0  0  0
   -4.0613   -4.8810    0.2391 H   0  0  0  0  0  0  0  0  0  0  0  0
    3.2739   -3.3198    2.0626 H   0  0  0  0  0  0  0  0  0  0  0  0
    1.5375   -3.7579    1.9610 H   0  0  0  0  0  0  0  0  0  0  0  0
    2.7891   -5.0074    1.7870 H   0  0  0  0  0  0  0  0  0  0  0  0
    1.1475    3.6924   -2.6066 H   0  0  0  0  0  0  0  0  0  0  0  0
   -0.8478    4.8700   -3.3196 H   0  0  0  0  0  0  0  0  0  0  0  0
   -1.8981    3.3815   -2.9777 H   0  0  0  0  0  0  0  0  0  0  0  0
  1 21  1  0  0  0  0
  1 35  1  0  0  0  0
  2 34  2  0  0  0  0
  3 10  1  0  0  0  0
  3 11  1  0  0  0  0
  3 20  1  0  0  0  0
  4 14  1  0  0  0  0
  4 18  1  0  0  0  0
  4 26  1  0  0  0  0
  5 12  1  0  0  0  0
  5 27  1  0  0  0  0
  5 28  1  0  0  0  0
  6 19  1  0  0  0  0
  6 29  1  0  0  0  0
  6 53  1  0  0  0  0
  7 16  1  0  0  0  0
  7 34  1  0  0  0  0
  7 54  1  0  0  0  0
  8 23  2  0  0  0  0
  8 29  1  0  0  0  0
  9 29  2  0  0  0  0
  9 33  1  0  0  0  0
 10 12  1  0  0  0  0
 10 38  1  0  0  0  0
 10 39  1  0  0  0  0
 11 16  1  0  0  0  0
 11 17  2  0  0  0  0
 12 40  1  0  0  0  0
 12 41  1  0  0  0  0
 13 14  1  0  0  0  0
 13 15  1  0  0  0  0
 13 24  2  0  0  0  0
 14 25  2  0  0  0  0
 15 18  2  0  0  0  0
 15 23  1  0  0  0  0
 16 22  2  0  0  0  0
 17 21  1  0  0  0  0
 17 42  1  0  0  0  0
 18 43  1  0  0  0  0
 19 21  2  0  0  0  0
 19 22  1  0  0  0  0
 20 44  1  0  0  0  0
 20 45  1  0  0  0  0
 20 46  1  0  0  0  0
 22 47  1  0  0  0  0
 23 32  1  0  0  0  0
 24 30  1  0  0  0  0
 24 48  1  0  0  0  0
 25 31  1  0  0  0  0
 25 49  1  0  0  0  0
 26 50  1  0  0  0  0
 26 51  1  0  0  0  0
 26 52  1  0  0  0  0
 27 55  1  0  0  0  0
 27 56  1  0  0  0  0
 27 57  1  0  0  0  0
 28 58  1  0  0  0  0
 28 59  1  0  0  0  0
 28 60  1  0  0  0  0
 30 31  2  0  0  0  0
 30 61  1  0  0  0  0
 31 62  1  0  0  0  0
 32 33  2  0  0  0  0
 32 63  1  0  0  0  0
 33 64  1  0  0  0  0
 34 36  1  0  0  0  0
 35 65  1  0  0  0  0
 35 66  1  0  0  0  0
 35 67  1  0  0  0  0
 36 37  2  0  0  0  0
 36 68  1  0  0  0  0
 37 69  1  0  0  0  0
 37 70  1  0  0  0  0
M  END
> <PUBCHEM_COMPOUND_CID>
71496458

> <PUBCHEM_CONFORMER_RMSD>
1.2

> <PUBCHEM_CONFORMER_DIVERSEORDER>
1
7
39
69
65
77
27
78
36
32
50
76
33
72
19
28
56
9
26
68
46
16
63
44
31
20
35
61
51
5
64
8
74
71
52
38
4
75
14
17
58
40
60
67
34
11
79
18
66
6
57
73
41
21
70
80
42
13
47
59
37
12
45
15
49
3
53
43
54
30
2
10
62
23
29
48
22
24
25
55

> <PUBCHEM_MMFF94_PARTIAL_CHARGES>
50
1 -0.36
10 0.37
11 0.1
12 0.27
14 -0.15
15 -0.05
16 0.12
17 -0.15
18 -0.3
19 0.1
2 -0.57
20 0.37
21 0.08
22 -0.15
23 0.36
24 -0.15
25 -0.15
26 0.26
27 0.27
28 0.27
29 0.72
3 -0.84
30 -0.15
31 -0.15
32 -0.15
33 0.16
34 0.62
35 0.28
36 -0.14
37 -0.3
4 0.05
42 0.15
43 0.15
47 0.15
48 0.15
49 0.15
5 -0.81
53 0.4
54 0.37
6 -0.6
61 0.15
62 0.15
63 0.15
64 0.15
68 0.15
69 0.15
7 -0.55
70 0.15
8 -0.62
9 -0.62

> <PUBCHEM_EFFECTIVE_ROTOR_COUNT>
11

> <PUBCHEM_PHARMACOPHORE_FEATURES>
14
1 1 acceptor
1 2 acceptor
1 3 cation
1 37 hydrophobe
1 4 cation
1 5 cation
1 6 donor
1 7 donor
1 8 acceptor
4 6 8 9 29 cation
5 4 13 14 15 18 rings
6 11 16 17 19 21 22 rings
6 13 14 24 25 30 31 rings
6 8 9 23 29 32 33 rings

> <PUBCHEM_HEAVY_ATOM_COUNT>
37

> <PUBCHEM_ATOM_DEF_STEREO_COUNT>
0

> <PUBCHEM_ATOM_UDEF_STEREO_COUNT>
0

> <PUBCHEM_BOND_DEF_STEREO_COUNT>
0

> <PUBCHEM_BOND_UDEF_STEREO_COUNT>
0

> <PUBCHEM_ISOTOPIC_ATOM_COUNT>
0

> <PUBCHEM_COMPONENT_COUNT>
1

> <PUBCHEM_CACTVS_TAUTO_COUNT>
6

> <PUBCHEM_CONFORMER_ID>
0442F30A00000001

> <PUBCHEM_MMFF94_ENERGY>
140.4079

> <PUBCHEM_FEATURE_SELFOVERLAP>
71.138

> <PUBCHEM_SHAPE_FINGERPRINT>
10439779 11 18408889568082662741
11007060 377 17036456249132935780
11513181 2 17988373563644089743
12422481 6 18187072932896613938
12788726 201 17834132101193318638
13560911 43 17752772608640584863
13965767 371 18118980086998001602
14068700 675 18122067769204997823
14395042 24 18190466142282702915
14705955 166 18128242592864222712
14739800 52 18272643529003254922
15003188 8 18334016073242204349
20511986 3 18339355276116085839
20642791 105 18264494056540423199
20764821 26 17982467189148010601
21033648 29 18129669719706367802
2132832 1 18048037664428969119
23559900 14 18129682832167572524
392239 28 18057607761823158714
469060 322 18187363285333381252
9981440 41 18411143553982682155

> <PUBCHEM_SHAPE_MULTIPOLES>
714.84
12.87
5.73
2.65
8.32
3.92
0.37
-6.41
-8.14
-3.44
-0.1
3.39
-3.41
0.26

> <PUBCHEM_SHAPE_SELFOVERLAP>
1535.608

> <PUBCHEM_SHAPE_VOLUME>
395.9

> <PUBCHEM_COORDINATE_TYPE>
2
5
10

$$$$
121269225
  -OEChem-11282412143D

 75 79  0     0  0  0  0  0  0999 V2000
   -7.1674   -3.2155    0.6590 O   0  0  0  0  0  0  0  0  0  0  0  0
   -4.4047    3.4849    0.8410 O   0  0  0  0  0  0  0  0  0  0  0  0
   -0.5830   -1.0409   -1.8218 O   0  0  0  0  0  0  0  0  0  0  0  0
   -5.2482   -1.1940    0.2994 N   0  0  0  0  0  0  0  0  0  0  0  0
   -2.7128   -1.4956   -0.9310 N   0  0  0  0  0  0  0  0  0  0  0  0
   -1.8799    3.2295   -0.3731 N   0  0  0  0  0  0  0  0  0  0  0  0
    2.3656    1.2580   -0.1519 N   0  0  0  0  0  0  0  0  0  0  0  0
    3.8190   -2.6469    1.5487 N   0  0  0  0  0  0  0  0  0  0  0  0
    3.7053    1.3586   -0.1858 N   0  0  0  0  0  0  0  0  0  0  0  0
    0.2330    2.2253   -0.2597 N   0  0  0  0  0  0  0  0  0  0  0  0
    0.0062    4.6010   -0.5944 N   0  0  0  0  0  0  0  0  0  0  0  0
   -6.2053   -1.5084   -0.7703 C   0  0  0  0  0  0  0  0  0  0  0  0
   -5.6703   -1.5834    1.6493 C   0  0  0  0  0  0  0  0  0  0  0  0
   -4.3982   -0.0973    0.1235 C   0  0  0  0  0  0  0  0  0  0  0  0
   -6.6550   -2.9599   -0.6486 C   0  0  0  0  0  0  0  0  0  0  0  0
   -6.1494   -3.0308    1.6421 C   0  0  0  0  0  0  0  0  0  0  0  0
   -3.1501   -0.2462   -0.4814 C   0  0  0  0  0  0  0  0  0  0  0  0
   -4.8136    1.1590    0.5651 C   0  0  0  0  0  0  0  0  0  0  0  0
   -3.9810    2.2662    0.4018 C   0  0  0  0  0  0  0  0  0  0  0  0
   -2.3175    0.8610   -0.6447 C   0  0  0  0  0  0  0  0  0  0  0  0
   -2.7329    2.1170   -0.2031 C   0  0  0  0  0  0  0  0  0  0  0  0
    3.0346   -0.8019    0.1308 C   0  0  0  0  0  0  0  0  0  0  0  0
    3.0808   -2.2601    0.3367 C   0  0  0  0  0  0  0  0  0  0  0  0
    4.1085    0.0969   -0.0126 C   0  0  0  0  0  0  0  0  0  0  0  0
    1.9129   -0.0149    0.0354 C   0  0  0  0  0  0  0  0  0  0  0  0
   -0.4791    3.3582   -0.4111 C   0  0  0  0  0  0  0  0  0  0  0  0
    1.5721    2.3849   -0.3007 C   0  0  0  0  0  0  0  0  0  0  0  0
    5.5141   -0.2169    0.0114 C   0  0  0  0  0  0  0  0  0  0  0  0
   -1.4984   -1.8098   -1.5527 C   0  0  0  0  0  0  0  0  0  0  0  0
    4.2371   -4.0424    1.4588 C   0  0  0  0  0  0  0  0  0  0  0  0
    2.9926   -2.4290    2.7318 C   0  0  0  0  0  0  0  0  0  0  0  0
    2.1938    3.6035   -0.4828 C   0  0  0  0  0  0  0  0  0  0  0  0
   -4.0826    3.8363    2.1849 C   0  0  0  0  0  0  0  0  0  0  0  0
    6.0470   -1.0995   -0.9280 C   0  0  0  0  0  0  0  0  0  0  0  0
    6.3421    0.3609    0.9736 C   0  0  0  0  0  0  0  0  0  0  0  0
    1.3522    4.6878   -0.6254 C   0  0  0  0  0  0  0  0  0  0  0  0
   -1.4107   -3.2622   -1.8818 C   0  0  0  0  0  0  0  0  0  0  0  0
    7.4081   -1.4043   -0.9052 C   0  0  0  0  0  0  0  0  0  0  0  0
    7.7030    0.0563    0.9966 C   0  0  0  0  0  0  0  0  0  0  0  0
    8.2360   -0.8264    0.0571 C   0  0  0  0  0  0  0  0  0  0  0  0
   -0.3241   -3.7592   -2.4810 C   0  0  0  0  0  0  0  0  0  0  0  0
   -5.7595   -1.3501   -1.7592 H   0  0  0  0  0  0  0  0  0  0  0  0
   -7.0706   -0.8408   -0.6760 H   0  0  0  0  0  0  0  0  0  0  0  0
   -6.4878   -0.9276    1.9727 H   0  0  0  0  0  0  0  0  0  0  0  0
   -4.8436   -1.4790    2.3615 H   0  0  0  0  0  0  0  0  0  0  0  0
   -7.4527   -3.1654   -1.3693 H   0  0  0  0  0  0  0  0  0  0  0  0
   -5.8305   -3.6521   -0.8589 H   0  0  0  0  0  0  0  0  0  0  0  0
   -5.3223   -3.7236    1.4446 H   0  0  0  0  0  0  0  0  0  0  0  0
   -6.5723   -3.2890    2.6181 H   0  0  0  0  0  0  0  0  0  0  0  0
   -5.7872    1.2882    1.0324 H   0  0  0  0  0  0  0  0  0  0  0  0
   -1.3817    0.8002   -1.1717 H   0  0  0  0  0  0  0  0  0  0  0  0
   -3.3716   -2.2561   -0.7761 H   0  0  0  0  0  0  0  0  0  0  0  0
   -2.3566    4.1260   -0.3525 H   0  0  0  0  0  0  0  0  0  0  0  0
    2.0679   -2.6865    0.3445 H   0  0  0  0  0  0  0  0  0  0  0  0
    3.5661   -2.6926   -0.5488 H   0  0  0  0  0  0  0  0  0  0  0  0
    0.8639   -0.2626    0.1130 H   0  0  0  0  0  0  0  0  0  0  0  0
    4.9087   -4.1918    0.6059 H   0  0  0  0  0  0  0  0  0  0  0  0
    3.3857   -4.7247    1.3528 H   0  0  0  0  0  0  0  0  0  0  0  0
    4.8017   -4.3334    2.3517 H   0  0  0  0  0  0  0  0  0  0  0  0
    2.7243   -1.3728    2.8434 H   0  0  0  0  0  0  0  0  0  0  0  0
    3.5469   -2.6990    3.6380 H   0  0  0  0  0  0  0  0  0  0  0  0
    2.0693   -3.0198    2.7116 H   0  0  0  0  0  0  0  0  0  0  0  0
    3.2655    3.7534   -0.5189 H   0  0  0  0  0  0  0  0  0  0  0  0
   -2.9984    3.8440    2.3353 H   0  0  0  0  0  0  0  0  0  0  0  0
   -4.5536    3.1398    2.8857 H   0  0  0  0  0  0  0  0  0  0  0  0
   -4.4688    4.8409    2.3781 H   0  0  0  0  0  0  0  0  0  0  0  0
    5.4223   -1.5525   -1.6939 H   0  0  0  0  0  0  0  0  0  0  0  0
    5.9443    1.0482    1.7167 H   0  0  0  0  0  0  0  0  0  0  0  0
    1.7486    5.6868   -0.7730 H   0  0  0  0  0  0  0  0  0  0  0  0
   -2.2408   -3.9132   -1.6302 H   0  0  0  0  0  0  0  0  0  0  0  0
    7.8236   -2.0898   -1.6380 H   0  0  0  0  0  0  0  0  0  0  0  0
    8.3477    0.5055    1.7464 H   0  0  0  0  0  0  0  0  0  0  0  0
    9.2958   -1.0634    0.0748 H   0  0  0  0  0  0  0  0  0  0  0  0
   -0.2709   -4.8171   -2.7162 H   0  0  0  0  0  0  0  0  0  0  0  0
    0.5284   -3.1451   -2.7490 H   0  0  0  0  0  0  0  0  0  0  0  0
  1 15  1  0  0  0  0
  1 16  1  0  0  0  0
  2 19  1  0  0  0  0
  2 33  1  0  0  0  0
  3 29  2  0  0  0  0
  4 12  1  0  0  0  0
  4 13  1  0  0  0  0
  4 14  1  0  0  0  0
  5 17  1  0  0  0  0
  5 29  1  0  0  0  0
  5 52  1  0  0  0  0
  6 21  1  0  0  0  0
  6 26  1  0  0  0  0
  6 53  1  0  0  0  0
  7  9  1  0  0  0  0
  7 25  1  0  0  0  0
  7 27  1  0  0  0  0
  8 23  1  0  0  0  0
  8 30  1  0  0  0  0
  8 31  1  0  0  0  0
  9 24  2  0  0  0  0
 10 26  1  0  0  0  0
 10 27  2  0  0  0  0
 11 26  2  0  0  0  0
 11 36  1  0  0  0  0
 12 15  1  0  0  0  0
 12 42  1  0  0  0  0
 12 43  1  0  0  0  0
 13 16  1  0  0  0  0
 13 44  1  0  0  0  0
 13 45  1  0  0  0  0
 14 17  1  0  0  0  0
 14 18  2  0  0  0  0
 15 46  1  0  0  0  0
 15 47  1  0  0  0  0
 16 48  1  0  0  0  0
 16 49  1  0  0  0  0
 17 20  2  0  0  0  0
 18 19  1  0  0  0  0
 18 50  1  0  0  0  0
 19 21  2  0  0  0  0
 20 21  1  0  0  0  0
 20 51  1  0  0  0  0
 22 23  1  0  0  0  0
 22 24  1  0  0  0  0
 22 25  2  0  0  0  0
 23 54  1  0  0  0  0
 23 55  1  0  0  0  0
 24 28  1  0  0  0  0
 25 56  1  0  0  0  0
 27 32  1  0  0  0  0
 28 34  2  0  0  0  0
 28 35  1  0  0  0  0
 29 37  1  0  0  0  0
 30 57  1  0  0  0  0
 30 58  1  0  0  0  0
 30 59  1  0  0  0  0
 31 60  1  0  0  0  0
 31 61  1  0  0  0  0
 31 62  1  0  0  0  0
 32 36  2  0  0  0  0
 32 63  1  0  0  0  0
 33 64  1  0  0  0  0
 33 65  1  0  0  0  0
 33 66  1  0  0  0  0
 34 38  1  0  0  0  0
 34 67  1  0  0  0  0
 35 39  2  0  0  0  0
 35 68  1  0  0  0  0
 36 69  1  0  0  0  0
 37 41  2  0  0  0  0
 37 70  1  0  0  0  0
 38 40  2  0  0  0  0
 38 71  1  0  0  0  0
 39 40  1  0  0  0  0
 39 72  1  0  0  0  0
 40 73  1  0  0  0  0
 41 74  1  0  0  0  0
 41 75  1  0  0  0  0
M  END
> <PUBCHEM_COMPOUND_CID>
121269225

> <PUBCHEM_CONFORMER_RMSD>
1.2

> <PUBCHEM_CONFORMER_DIVERSEORDER>
1
31
30
33
22
2
39
40
42
24
12
19
13
34
32
21
11
18
5
17
38
16
37
14
6
10
23
41
20
8
26
9
35
27
3
25
7
29
36
15
28
4

> <PUBCHEM_MMFF94_PARTIAL_CHARGES>
56
1 -0.56
10 -0.62
11 -0.62
12 0.37
13 0.37
14 0.1
15 0.28
16 0.28
17 0.12
18 -0.15
19 0.08
2 -0.36
20 -0.15
21 0.1
22 -0.18
23 0.45
24 0.23
25 -0.3
26 0.72
27 0.29
28 0.05
29 0.62
3 -0.57
30 0.27
31 0.27
32 -0.15
33 0.28
34 -0.15
35 -0.15
36 0.16
37 -0.14
38 -0.15
39 -0.15
4 -0.84
40 -0.15
41 -0.3
5 -0.55
50 0.15
51 0.15
52 0.37
53 0.4
56 0.15
6 -0.6
63 0.15
67 0.15
68 0.15
69 0.15
7 0.59
70 0.15
71 0.15
72 0.15
73 0.15
74 0.15
75 0.15
8 -0.81
9 -0.71

> <PUBCHEM_EFFECTIVE_ROTOR_COUNT>
12.2

> <PUBCHEM_PHARMACOPHORE_FEATURES>
15
1 1 acceptor
1 2 acceptor
1 3 acceptor
1 4 cation
1 41 hydrophobe
1 5 donor
1 6 donor
1 8 cation
1 9 acceptor
4 6 10 11 26 cation
5 7 9 22 24 25 rings
6 1 4 12 13 15 16 rings
6 10 11 26 27 32 36 rings
6 14 17 18 19 20 21 rings
6 28 34 35 38 39 40 rings

> <PUBCHEM_HEAVY_ATOM_COUNT>
41

> <PUBCHEM_ATOM_DEF_STEREO_COUNT>
0

> <PUBCHEM_ATOM_UDEF_STEREO_COUNT>
0

> <PUBCHEM_BOND_DEF_STEREO_COUNT>
0

> <PUBCHEM_BOND_UDEF_STEREO_COUNT>
0

> <PUBCHEM_ISOTOPIC_ATOM_COUNT>
0

> <PUBCHEM_COMPONENT_COUNT>
1

> <PUBCHEM_CACTVS_TAUTO_COUNT>
21

> <PUBCHEM_CONFORMER_ID>
073A6BE900000001

> <PUBCHEM_MMFF94_ENERGY>
152.827

> <PUBCHEM_FEATURE_SELFOVERLAP>
76.123

> <PUBCHEM_SHAPE_FINGERPRINT>
10462674 296 18055900229362274326
117089 54 18263092144354338331
11963148 33 18115585942575997050
12107698 1 18337393841724322403
12559416 138 18339348712874340727
13560911 23 18408602557088241267
14279260 333 18187357693993441490
14394314 77 18337110056029612200
15001296 14 18265896865773273624
15021287 119 18341047531706515807
15064986 96 18059864904782135415
15444296 121 18408895039955283246
16110190 28 18341895182268168492
19311894 1 18339911736691467118
19319366 153 17760935438911142901
19611394 137 18261683687065550115
19841028 212 18117559742109845515
208703 8 18336543905992583145
21033648 29 17631719491893857602
25019877 29 17275108357344291455
25222932 49 18408041814642871966
3383291 50 18337952393284008379
4461854 278 18130515235522043406
44880168 125 17560794378212456590
9896288 288 18270402668086312625

> <PUBCHEM_SHAPE_MULTIPOLES>
786.3
19.57
6.26
1.77
11.23
3.91
0.4
-14.21
5.68
-4.91
-0.06
-0.46
-1.67
-2

> <PUBCHEM_SHAPE_SELFOVERLAP>
1697.64

> <PUBCHEM_SHAPE_VOLUME>
430.8

> <PUBCHEM_COORDINATE_TYPE>
2
5
10

$$$$
123631
  -OEChem-11282412143D

 55 58  0     0  0  0  0  0  0999 V2000
   -5.7668    0.3787    2.1969 Cl  0  0  0  0  0  0  0  0  0  0  0  0
   -6.5134   -0.4026   -0.5639 F   0  0  0  0  0  0  0  0  0  0  0  0
   -1.5666    3.9138   -1.2756 O   0  0  0  0  0  0  0  0  0  0  0  0
    3.4187    0.9841    0.7617 O   0  0  0  0  0  0  0  0  0  0  0  0
    5.1811   -0.9472   -0.1795 O   0  0  0  0  0  0  0  0  0  0  0  0
    0.8065    3.1706    0.1093 N   0  0  0  0  0  0  0  0  0  0  0  0
   -1.1577   -1.2093    0.6057 N   0  0  0  0  0  0  0  0  0  0  0  0
    1.5715   -3.9953   -0.7797 N   0  0  0  0  0  0  0  0  0  0  0  0
   -0.6872   -3.3559   -0.2350 N   0  0  0  0  0  0  0  0  0  0  0  0
    1.8687    3.4141    1.0830 C   0  0  0  0  0  0  0  0  0  0  0  0
   -0.5076    3.1433    0.7665 C   0  0  0  0  0  0  0  0  0  0  0  0
    0.8208    4.1940   -0.9454 C   0  0  0  0  0  0  0  0  0  0  0  0
    3.2337    3.3454    0.4057 C   0  0  0  0  0  0  0  0  0  0  0  0
   -1.6000    2.8996   -0.2708 C   0  0  0  0  0  0  0  0  0  0  0  0
   -0.3035    3.9266   -1.9420 C   0  0  0  0  0  0  0  0  0  0  0  0
    3.4679    1.9878   -0.2429 C   0  0  0  0  0  0  0  0  0  0  0  0
    2.9636   -0.2513    0.3800 C   0  0  0  0  0  0  0  0  0  0  0  0
    1.1345   -1.7975    0.0753 C   0  0  0  0  0  0  0  0  0  0  0  0
    1.6085   -0.5330    0.4663 C   0  0  0  0  0  0  0  0  0  0  0  0
    3.8472   -1.2100   -0.0890 C   0  0  0  0  0  0  0  0  0  0  0  0
    2.0139   -2.7828   -0.4028 C   0  0  0  0  0  0  0  0  0  0  0  0
    3.3680   -2.4651   -0.4760 C   0  0  0  0  0  0  0  0  0  0  0  0
   -0.2104   -2.1519    0.1338 C   0  0  0  0  0  0  0  0  0  0  0  0
   -2.5153   -1.0034    0.3137 C   0  0  0  0  0  0  0  0  0  0  0  0
    0.2453   -4.2162   -0.6749 C   0  0  0  0  0  0  0  0  0  0  0  0
    5.9801   -1.2502    0.9623 C   0  0  0  0  0  0  0  0  0  0  0  0
   -3.3725   -0.4761    1.2841 C   0  0  0  0  0  0  0  0  0  0  0  0
   -3.0195   -1.3245   -0.9503 C   0  0  0  0  0  0  0  0  0  0  0  0
   -4.7214   -0.2715    0.9935 C   0  0  0  0  0  0  0  0  0  0  0  0
   -4.3685   -1.1204   -1.2408 C   0  0  0  0  0  0  0  0  0  0  0  0
   -5.2195   -0.5937   -0.2691 C   0  0  0  0  0  0  0  0  0  0  0  0
    1.7519    4.3954    1.5612 H   0  0  0  0  0  0  0  0  0  0  0  0
    1.8213    2.6671    1.8849 H   0  0  0  0  0  0  0  0  0  0  0  0
   -0.5439    2.3423    1.5138 H   0  0  0  0  0  0  0  0  0  0  0  0
   -0.6968    4.0955    1.2787 H   0  0  0  0  0  0  0  0  0  0  0  0
    0.6940    5.1941   -0.5109 H   0  0  0  0  0  0  0  0  0  0  0  0
    1.7484    4.1848   -1.5236 H   0  0  0  0  0  0  0  0  0  0  0  0
    3.3994    4.1553   -0.3105 H   0  0  0  0  0  0  0  0  0  0  0  0
    3.9888    3.4868    1.1906 H   0  0  0  0  0  0  0  0  0  0  0  0
   -1.4962    1.9152   -0.7428 H   0  0  0  0  0  0  0  0  0  0  0  0
   -2.5840    2.9357    0.2074 H   0  0  0  0  0  0  0  0  0  0  0  0
   -0.3331    4.7218   -2.6939 H   0  0  0  0  0  0  0  0  0  0  0  0
   -0.1589    2.9760   -2.4700 H   0  0  0  0  0  0  0  0  0  0  0  0
    2.7478    1.7953   -1.0476 H   0  0  0  0  0  0  0  0  0  0  0  0
    4.4689    1.9703   -0.6891 H   0  0  0  0  0  0  0  0  0  0  0  0
    0.9409    0.2392    0.8359 H   0  0  0  0  0  0  0  0  0  0  0  0
    4.0722   -3.2099   -0.8440 H   0  0  0  0  0  0  0  0  0  0  0  0
   -0.8517   -0.7299    1.4480 H   0  0  0  0  0  0  0  0  0  0  0  0
   -0.1048   -5.1946   -0.9804 H   0  0  0  0  0  0  0  0  0  0  0  0
   -2.9838   -0.2245    2.2690 H   0  0  0  0  0  0  0  0  0  0  0  0
   -2.3750   -1.7226   -1.7296 H   0  0  0  0  0  0  0  0  0  0  0  0
    7.0155   -0.9804    0.7371 H   0  0  0  0  0  0  0  0  0  0  0  0
    5.6482   -0.6707    1.8295 H   0  0  0  0  0  0  0  0  0  0  0  0
    5.9378   -2.3207    1.1867 H   0  0  0  0  0  0  0  0  0  0  0  0
   -4.7560   -1.3680   -2.2246 H   0  0  0  0  0  0  0  0  0  0  0  0
  1 29  1  0  0  0  0
  2 31  1  0  0  0  0
  3 14  1  0  0  0  0
  3 15  1  0  0  0  0
  4 16  1  0  0  0  0
  4 17  1  0  0  0  0
  5 20  1  0  0  0  0
  5 26  1  0  0  0  0
  6 10  1  0  0  0  0
  6 11  1  0  0  0  0
  6 12  1  0  0  0  0
  7 23  1  0  0  0  0
  7 24  1  0  0  0  0
  7 48  1  0  0  0  0
  8 21  1  0  0  0  0
  8 25  2  0  0  0  0
  9 23  2  0  0  0  0
  9 25  1  0  0  0  0
 10 13  1  0  0  0  0
 10 32  1  0  0  0  0
 10 33  1  0  0  0  0
 11 14  1  0  0  0  0
 11 34  1  0  0  0  0
 11 35  1  0  0  0  0
 12 15  1  0  0  0  0
 12 36  1  0  0  0  0
 12 37  1  0  0  0  0
 13 16  1  0  0  0  0
 13 38  1  0  0  0  0
 13 39  1  0  0  0  0
 14 40  1  0  0  0  0
 14 41  1  0  0  0  0
 15 42  1  0  0  0  0
 15 43  1  0  0  0  0
 16 44  1  0  0  0  0
 16 45  1  0  0  0  0
 17 19  1  0  0  0  0
 17 20  2  0  0  0  0
 18 19  2  0  0  0  0
 18 21  1  0  0  0  0
 18 23  1  0  0  0  0
 19 46  1  0  0  0  0
 20 22  1  0  0  0  0
 21 22  2  0  0  0  0
 22 47  1  0  0  0  0
 24 27  2  0  0  0  0
 24 28  1  0  0  0  0
 25 49  1  0  0  0  0
 26 52  1  0  0  0  0
 26 53  1  0  0  0  0
 26 54  1  0  0  0  0
 27 29  1  0  0  0  0
 27 50  1  0  0  0  0
 28 30  2  0  0  0  0
 28 51  1  0  0  0  0
 29 31  2  0  0  0  0
 30 31  1  0  0  0  0
 30 55  1  0  0  0  0
M  END
> <PUBCHEM_COMPOUND_CID>
123631

> <PUBCHEM_CONFORMER_RMSD>
1

> <PUBCHEM_CONFORMER_DIVERSEORDER>
1
105
171
318
150
307
104
277
2
273
180
346
192
231
232
69
84
321
311
149
256
215
214
234
41
148
260
227
92
281
217
78
109
142
337
323
54
289
255
66
288
95
128
157
100
292
333
206
126
349
336
135
59
130
240
245
140
208
151
127
244
76
155
295
230
351
110
117
38
146
264
187
326
185
114
101
269
46
194
3
331
99
62
359
352
267
222
147
210
302
238
348
116
254
23
272
261
58
113
103
6
290
360
51
257
203
253
115
134
167
233
26
280
251
4
344
39
350
285
36
106
132
24
270
27
160
310
183
97
236
263
98
325
80
35
356
102
44
275
345
91
322
341
191
327
329
286
241
235
205
283
31
93
63
220
271
81
71
166
55
154
258
334
64
120
119
219
169
94
14
161
312
111
57
25
121
259
60
268
278
338
175
229
195
320
182
319
300
250
162
279
21
75
123
347
156
248
164
262
328
309
199
237
131
284
33
218
343
7
306
213
12
304
70
83
168
179
242
145
354
9
301
68
118
107
303
335
141
61
209
358
165
18
19
207
314
22
122
85
324
298
88
212
124
296
5
56
153
282
74
200
294
170
20
226
45
204
287
177
315
136
15
357
228
163
308
339
89
305
139
10
266
189
53
249
342
133
317
193
188
172
211
77
291
52
29
197
48
252
186
11
299
276
137
152
176
243
178
82
13
297
143
17
225
125
138
201
216
73
40
108
34
129
202
30
190
79
67
221
181
158
198
340
353
144
72
159
112
246
90
173
223
239
293
47
65
355
274
196
32
330
28
265
86
332
313
87
43
316
184
96
49
8
42
247
174
224
16
37
50

> <PUBCHEM_MMFF94_PARTIAL_CHARGES>
36
1 -0.18
10 0.27
11 0.27
12 0.27
14 0.28
15 0.28
16 0.28
17 0.08
19 -0.15
2 -0.19
20 0.08
21 0.31
22 -0.15
23 0.41
24 0.1
25 0.47
26 0.28
27 -0.15
28 -0.15
29 0.18
3 -0.56
30 -0.15
31 0.19
4 -0.36
46 0.15
47 0.15
48 0.4
49 0.15
5 -0.36
50 0.15
51 0.15
55 0.15
6 -0.81
7 -0.6
8 -0.62
9 -0.62

> <PUBCHEM_EFFECTIVE_ROTOR_COUNT>
9.2

> <PUBCHEM_PHARMACOPHORE_FEATURES>
11
1 3 acceptor
1 4 acceptor
1 5 acceptor
1 6 cation
1 7 donor
3 7 9 23 cation
3 8 9 25 cation
6 17 18 19 20 21 22 rings
6 24 27 28 29 30 31 rings
6 3 6 11 12 14 15 rings
6 8 9 18 21 23 25 rings

> <PUBCHEM_HEAVY_ATOM_COUNT>
31

> <PUBCHEM_ATOM_DEF_STEREO_COUNT>
0

> <PUBCHEM_ATOM_UDEF_STEREO_COUNT>
0

> <PUBCHEM_BOND_DEF_STEREO_COUNT>
0

> <PUBCHEM_BOND_UDEF_STEREO_COUNT>
0

> <PUBCHEM_ISOTOPIC_ATOM_COUNT>
0

> <PUBCHEM_COMPONENT_COUNT>
1

> <PUBCHEM_CACTVS_TAUTO_COUNT>
3

> <PUBCHEM_CONFORMER_ID>
0001E2EF00000001

> <PUBCHEM_MMFF94_ENERGY>
107.6811

> <PUBCHEM_FEATURE_SELFOVERLAP>
55.999

> <PUBCHEM_SHAPE_FINGERPRINT>
10074138 170 16243749605734916810
10439779 11 17838322335664593000
10670039 82 18192451696772769358
10688039 33 18187650154672918988
11513181 2 17988656227893438245
13122387 1 16753810863652328332
13140716 1 18265051504393201938
13402501 40 18335695035808385589
1361 2 18267295620525802975
13690498 29 17694243074537241503
14114211 80 18051152550457819900
14117953 113 18413384324034786838
14289585 56 18341325591851910943
14725015 67 18262503815290997688
14784336 7 17700687639564382401
15003188 8 18051397758968228896
15439362 3 18194396921399151401
15483637 11 18121781617083273973
19930381 70 18411131459443738743
20739085 24 18336560390225050865
20764821 26 18338221700644217236
21344244 246 18123456440244663151
21641784 216 18116736040159514220
21860390 5 18272097135979824806
22113638 7 18266455597520145244
24771293 8 18131626799396952058
25265897 201 17554080957211701982
3380486 145 18050025297810658048
4573279 73 17694776725178577463
469060 322 18265346026952595761
474 4 18342457079848970803
550186 83 17678998608116905104

> <PUBCHEM_SHAPE_MULTIPOLES>
595.03
10.99
6.39
1.35
8.34
4.1
-0.08
-3.52
-3.09
-4
2.39
1.38
0.76
0.16

> <PUBCHEM_SHAPE_SELFOVERLAP>
1270.692

> <PUBCHEM_SHAPE_VOLUME>
331.7

> <PUBCHEM_COORDINATE_TYPE>
2
5
10

$$$$
176870
  -OEChem-11282412143D

 52 54  0     0  0  0  0  0  0999 V2000
   -2.4158   -1.4991   -0.9374 O   0  0  0  0  0  0  0  0  0  0  0  0
   -3.7833    0.8252   -0.2670 O   0  0  0  0  0  0  0  0  0  0  0  0
   -4.3506   -2.6934    0.6983 O   0  0  0  0  0  0  0  0  0  0  0  0
   -6.5545    0.9800    0.1072 O   0  0  0  0  0  0  0  0  0  0  0  0
    2.4826   -0.1680   -1.0535 N   0  0  0  0  0  0  0  0  0  0  0  0
    0.3264    3.2230   -0.0628 N   0  0  0  0  0  0  0  0  0  0  0  0
    2.4221    2.1199   -0.5078 N   0  0  0  0  0  0  0  0  0  0  0  0
    0.3443    0.8892   -0.6153 C   0  0  0  0  0  0  0  0  0  0  0  0
   -0.3341    2.0714   -0.2764 C   0  0  0  0  0  0  0  0  0  0  0  0
   -1.7430   -0.3357   -0.7205 C   0  0  0  0  0  0  0  0  0  0  0  0
   -2.4259    0.8282   -0.3856 C   0  0  0  0  0  0  0  0  0  0  0  0
   -0.3567   -0.3090   -0.8364 C   0  0  0  0  0  0  0  0  0  0  0  0
    1.7297    0.9839   -0.7150 C   0  0  0  0  0  0  0  0  0  0  0  0
   -1.7215    2.0160   -0.1673 C   0  0  0  0  0  0  0  0  0  0  0  0
   -2.0930   -2.6027   -0.0928 C   0  0  0  0  0  0  0  0  0  0  0  0
    3.7861   -0.5763   -0.7298 C   0  0  0  0  0  0  0  0  0  0  0  0
   -4.3551    1.7494    0.6563 C   0  0  0  0  0  0  0  0  0  0  0  0
    1.6683    3.1847   -0.1897 C   0  0  0  0  0  0  0  0  0  0  0  0
   -3.3264   -3.4670    0.0851 C   0  0  0  0  0  0  0  0  0  0  0  0
   -5.6535    1.1760    1.1904 C   0  0  0  0  0  0  0  0  0  0  0  0
    4.3592   -0.1864    0.4807 C   0  0  0  0  0  0  0  0  0  0  0  0
    4.5082   -1.3722   -1.6190 C   0  0  0  0  0  0  0  0  0  0  0  0
    5.6545   -0.5924    0.8017 C   0  0  0  0  0  0  0  0  0  0  0  0
    5.8034   -1.7783   -1.2979 C   0  0  0  0  0  0  0  0  0  0  0  0
    6.3766   -1.3882   -0.0876 C   0  0  0  0  0  0  0  0  0  0  0  0
   -5.5415   -3.4491    0.8700 C   0  0  0  0  0  0  0  0  0  0  0  0
   -7.7846    0.4219    0.5477 C   0  0  0  0  0  0  0  0  0  0  0  0
    6.2422   -0.1932    2.0414 C   0  0  0  0  0  0  0  0  0  0  0  0
    6.7362    0.1422    3.0833 C   0  0  0  0  0  0  0  0  0  0  0  0
    0.1603   -1.2276   -1.1005 H   0  0  0  0  0  0  0  0  0  0  0  0
   -2.2397    2.9441    0.0651 H   0  0  0  0  0  0  0  0  0  0  0  0
    2.0802   -0.6880   -1.8285 H   0  0  0  0  0  0  0  0  0  0  0  0
   -1.7595   -2.2443    0.8896 H   0  0  0  0  0  0  0  0  0  0  0  0
   -1.2889   -3.1845   -0.5557 H   0  0  0  0  0  0  0  0  0  0  0  0
   -3.6972    1.9320    1.5150 H   0  0  0  0  0  0  0  0  0  0  0  0
   -4.5546    2.6884    0.1274 H   0  0  0  0  0  0  0  0  0  0  0  0
    2.1945    4.1154   -0.0160 H   0  0  0  0  0  0  0  0  0  0  0  0
   -3.6805   -3.8115   -0.8935 H   0  0  0  0  0  0  0  0  0  0  0  0
   -3.0890   -4.3341    0.7112 H   0  0  0  0  0  0  0  0  0  0  0  0
   -5.4614    0.2098    1.6715 H   0  0  0  0  0  0  0  0  0  0  0  0
   -6.0950    1.8640    1.9196 H   0  0  0  0  0  0  0  0  0  0  0  0
    3.7988    0.4223    1.1873 H   0  0  0  0  0  0  0  0  0  0  0  0
    4.0742   -1.6827   -2.5661 H   0  0  0  0  0  0  0  0  0  0  0  0
    6.3656   -2.3979   -1.9904 H   0  0  0  0  0  0  0  0  0  0  0  0
    7.3873   -1.7128    0.1481 H   0  0  0  0  0  0  0  0  0  0  0  0
   -6.2859   -2.8122    1.3550 H   0  0  0  0  0  0  0  0  0  0  0  0
   -5.3566   -4.3180    1.5089 H   0  0  0  0  0  0  0  0  0  0  0  0
   -5.9351   -3.7699   -0.0993 H   0  0  0  0  0  0  0  0  0  0  0  0
   -7.6198   -0.5577    1.0065 H   0  0  0  0  0  0  0  0  0  0  0  0
   -8.2776    1.0926    1.2579 H   0  0  0  0  0  0  0  0  0  0  0  0
   -8.4356    0.2945   -0.3213 H   0  0  0  0  0  0  0  0  0  0  0  0
    7.1742    0.4396    4.0073 H   0  0  0  0  0  0  0  0  0  0  0  0
  1 10  1  0  0  0  0
  1 15  1  0  0  0  0
  2 11  1  0  0  0  0
  2 17  1  0  0  0  0
  3 19  1  0  0  0  0
  3 26  1  0  0  0  0
  4 20  1  0  0  0  0
  4 27  1  0  0  0  0
  5 13  1  0  0  0  0
  5 16  1  0  0  0  0
  5 32  1  0  0  0  0
  6  9  1  0  0  0  0
  6 18  2  0  0  0  0
  7 13  2  0  0  0  0
  7 18  1  0  0  0  0
  8  9  1  0  0  0  0
  8 12  2  0  0  0  0
  8 13  1  0  0  0  0
  9 14  2  0  0  0  0
 10 11  2  0  0  0  0
 10 12  1  0  0  0  0
 11 14  1  0  0  0  0
 12 30  1  0  0  0  0
 14 31  1  0  0  0  0
 15 19  1  0  0  0  0
 15 33  1  0  0  0  0
 15 34  1  0  0  0  0
 16 21  1  0  0  0  0
 16 22  2  0  0  0  0
 17 20  1  0  0  0  0
 17 35  1  0  0  0  0
 17 36  1  0  0  0  0
 18 37  1  0  0  0  0
 19 38  1  0  0  0  0
 19 39  1  0  0  0  0
 20 40  1  0  0  0  0
 20 41  1  0  0  0  0
 21 23  2  0  0  0  0
 21 42  1  0  0  0  0
 22 24  1  0  0  0  0
 22 43  1  0  0  0  0
 23 25  1  0  0  0  0
 23 28  1  0  0  0  0
 24 25  2  0  0  0  0
 24 44  1  0  0  0  0
 25 45  1  0  0  0  0
 26 46  1  0  0  0  0
 26 47  1  0  0  0  0
 26 48  1  0  0  0  0
 27 49  1  0  0  0  0
 27 50  1  0  0  0  0
 27 51  1  0  0  0  0
 28 29  3  0  0  0  0
 29 52  1  0  0  0  0
M  END
> <PUBCHEM_COMPOUND_CID>
176870

> <PUBCHEM_CONFORMER_RMSD>
1

> <PUBCHEM_CONFORMER_DIVERSEORDER>
2
33
38
31
11
15
35
8
30
34
26
17
40
39
24
9
21
3
10
29
13
7
36
4
22
5
14
23
18
1
20
25
28
19
12
37
16
6
27
32

> <PUBCHEM_MMFF94_PARTIAL_CHARGES>
37
1 -0.36
10 0.08
11 0.08
12 -0.15
13 0.41
14 -0.15
15 0.28
16 0.1
17 0.28
18 0.47
19 0.28
2 -0.36
20 0.28
21 -0.15
22 -0.15
23 0.07
24 -0.15
25 -0.15
26 0.28
27 0.28
28 -0.07
29 -0.18
3 -0.56
30 0.15
31 0.15
32 0.4
37 0.15
4 -0.56
42 0.15
43 0.15
44 0.15
45 0.15
5 -0.6
52 0.18
6 -0.62
7 -0.62
9 0.31

> <PUBCHEM_EFFECTIVE_ROTOR_COUNT>
10

> <PUBCHEM_PHARMACOPHORE_FEATURES>
11
1 1 acceptor
1 2 acceptor
1 29 hydrophobe
1 3 acceptor
1 4 acceptor
1 5 donor
3 5 7 13 cation
3 6 7 18 cation
6 16 21 22 23 24 25 rings
6 6 7 8 9 13 18 rings
6 8 9 10 11 12 14 rings

> <PUBCHEM_HEAVY_ATOM_COUNT>
29

> <PUBCHEM_ATOM_DEF_STEREO_COUNT>
0

> <PUBCHEM_ATOM_UDEF_STEREO_COUNT>
0

> <PUBCHEM_BOND_DEF_STEREO_COUNT>
0

> <PUBCHEM_BOND_UDEF_STEREO_COUNT>
0

> <PUBCHEM_ISOTOPIC_ATOM_COUNT>
0

> <PUBCHEM_COMPONENT_COUNT>
1

> <PUBCHEM_CACTVS_TAUTO_COUNT>
3

> <PUBCHEM_CONFORMER_ID>
0002B2E600000002

> <PUBCHEM_MMFF94_ENERGY>
109.0345

> <PUBCHEM_FEATURE_SELFOVERLAP>
56.004

> <PUBCHEM_SHAPE_FINGERPRINT>
10050765 1 18265903634409981085
10319926 262 18341897415355152619
1100329 8 18410580586859225941
11135609 12 18339077193841987016
12035758 1 18341335517911506697
12107183 9 18410301306964043347
13140716 1 18341053003157227613
14866123 147 18335989735686148763
15042514 8 18410300215899931757
15131766 46 15624785411136496104
15537594 2 17894632517921483410
1813 80 17967535628270432548
18603816 31 16588306111714570659
20028762 73 18202569458605911511
21033648 29 17560222700922275914
21267235 1 18340215076997820492
21521239 73 13695593226494534760
21792934 111 18271802363463215817
22122407 14 15697993046696727122
23559900 14 18340486767717355157
23569914 152 12110548262754726986
3004659 81 18114474383490966340
3178227 256 18336283258119562097
335352 9 18411426098732582533
3383291 50 18411139121966439187
3882209 13 17264378412770275454
397830 11 18130503136730142786
50009960 94 17684628202304312418
5104073 3 18340486784702110729
5486654 36 18334299802929227327

> <PUBCHEM_SHAPE_MULTIPOLES>
558.39
18.56
3.67
1.58
0.91
1.25
1.1
7.15
9.51
4.62
0.05
-3.57
0.24
1.11

> <PUBCHEM_SHAPE_SELFOVERLAP>
1186.285

> <PUBCHEM_SHAPE_VOLUME>
308.9

> <PUBCHEM_COORDINATE_TYPE>
2
5
10

$$$$
208908
  -OEChem-11282412143D

 66 70  0     0  0  0  0  0  0999 V2000
    3.3937    0.0960    2.4647 Cl  0  0  0  0  0  0  0  0  0  0  0  0
    0.2709    3.4855    0.1002 S   0  0  0  0  0  0  0  0  0  0  0  0
    7.8366    2.6763   -0.0204 F   0  0  0  0  0  0  0  0  0  0  0  0
   -4.7942    1.5926    0.2850 O   0  0  0  0  0  0  0  0  0  0  0  0
    0.5643    3.5435    1.5221 O   0  0  0  0  0  0  0  0  0  0  0  0
    0.1306    2.2061   -0.5743 O   0  0  0  0  0  0  0  0  0  0  0  0
    4.4579   -1.6025    0.2234 O   0  0  0  0  0  0  0  0  0  0  0  0
   -3.6026    4.5648    0.1823 N   0  0  0  0  0  0  0  0  0  0  0  0
   -1.0737   -1.7001    0.7395 N   0  0  0  0  0  0  0  0  0  0  0  0
   -3.8561   -4.6448   -0.1067 N   0  0  0  0  0  0  0  0  0  0  0  0
   -1.6386   -3.9765    0.5586 N   0  0  0  0  0  0  0  0  0  0  0  0
   -2.4103    3.7716    0.4152 C   0  0  0  0  0  0  0  0  0  0  0  0
   -1.1885    4.4318   -0.2017 C   0  0  0  0  0  0  0  0  0  0  0  0
   -4.7701    3.9349    0.8220 C   0  0  0  0  0  0  0  0  0  0  0  0
   -5.3104    2.8228    0.0274 C   0  0  0  0  0  0  0  0  0  0  0  0
   -5.0149   -0.6538   -0.4312 C   0  0  0  0  0  0  0  0  0  0  0  0
   -5.4250    0.7240   -0.5484 C   0  0  0  0  0  0  0  0  0  0  0  0
   -3.3217   -2.3134    0.0653 C   0  0  0  0  0  0  0  0  0  0  0  0
   -3.7158   -0.9686   -0.0453 C   0  0  0  0  0  0  0  0  0  0  0  0
   -6.2639    2.7492   -0.9615 C   0  0  0  0  0  0  0  0  0  0  0  0
   -6.3382    1.3862   -1.3354 C   0  0  0  0  0  0  0  0  0  0  0  0
   -4.2225   -3.3553   -0.2091 C   0  0  0  0  0  0  0  0  0  0  0  0
   -5.9159   -1.6766   -0.7055 C   0  0  0  0  0  0  0  0  0  0  0  0
   -2.0385   -2.6960    0.4460 C   0  0  0  0  0  0  0  0  0  0  0  0
    1.5374    4.4024   -0.7468 C   0  0  0  0  0  0  0  0  0  0  0  0
   -5.5163   -3.0116   -0.5934 C   0  0  0  0  0  0  0  0  0  0  0  0
    0.3243   -1.6703    0.6153 C   0  0  0  0  0  0  0  0  0  0  0  0
   -2.5843   -4.8854    0.2717 C   0  0  0  0  0  0  0  0  0  0  0  0
    1.0863   -0.8975    1.4915 C   0  0  0  0  0  0  0  0  0  0  0  0
    0.9511   -2.4138   -0.3846 C   0  0  0  0  0  0  0  0  0  0  0  0
    3.1023   -1.6118    0.3679 C   0  0  0  0  0  0  0  0  0  0  0  0
    2.4754   -0.8684    1.3678 C   0  0  0  0  0  0  0  0  0  0  0  0
    2.3401   -2.3845   -0.5083 C   0  0  0  0  0  0  0  0  0  0  0  0
    4.9728   -1.1408   -1.0233 C   0  0  0  0  0  0  0  0  0  0  0  0
    6.3305   -0.5423   -0.8011 C   0  0  0  0  0  0  0  0  0  0  0  0
    6.4548    0.8158   -0.5079 C   0  0  0  0  0  0  0  0  0  0  0  0
    7.4688   -1.3439   -0.8882 C   0  0  0  0  0  0  0  0  0  0  0  0
    7.7172    1.3721   -0.3017 C   0  0  0  0  0  0  0  0  0  0  0  0
    8.7312   -0.7877   -0.6821 C   0  0  0  0  0  0  0  0  0  0  0  0
    8.8553    0.5704   -0.3889 C   0  0  0  0  0  0  0  0  0  0  0  0
   -2.5172    2.7715   -0.0194 H   0  0  0  0  0  0  0  0  0  0  0  0
   -2.2432    3.6402    1.4917 H   0  0  0  0  0  0  0  0  0  0  0  0
   -1.0229    5.4284    0.2212 H   0  0  0  0  0  0  0  0  0  0  0  0
   -1.3017    4.5220   -1.2873 H   0  0  0  0  0  0  0  0  0  0  0  0
   -4.5447    3.6222    1.8489 H   0  0  0  0  0  0  0  0  0  0  0  0
   -5.5494    4.7022    0.9092 H   0  0  0  0  0  0  0  0  0  0  0  0
   -3.4673    5.4904    0.5898 H   0  0  0  0  0  0  0  0  0  0  0  0
   -3.0099   -0.1648    0.1500 H   0  0  0  0  0  0  0  0  0  0  0  0
   -6.8347    3.5733   -1.3648 H   0  0  0  0  0  0  0  0  0  0  0  0
   -6.9796    0.9509   -2.0887 H   0  0  0  0  0  0  0  0  0  0  0  0
   -6.9394   -1.4643   -1.0054 H   0  0  0  0  0  0  0  0  0  0  0  0
    2.4859    3.8794   -0.6079 H   0  0  0  0  0  0  0  0  0  0  0  0
    1.2879    4.4499   -1.8082 H   0  0  0  0  0  0  0  0  0  0  0  0
    1.5950    5.4035   -0.3160 H   0  0  0  0  0  0  0  0  0  0  0  0
   -6.2410   -3.7936   -0.8128 H   0  0  0  0  0  0  0  0  0  0  0  0
   -1.4400   -0.9586    1.3301 H   0  0  0  0  0  0  0  0  0  0  0  0
    0.5955   -0.3176    2.2704 H   0  0  0  0  0  0  0  0  0  0  0  0
    0.3792   -3.0141   -1.0872 H   0  0  0  0  0  0  0  0  0  0  0  0
   -2.2952   -5.9262    0.3520 H   0  0  0  0  0  0  0  0  0  0  0  0
    2.8134   -2.9744   -1.2886 H   0  0  0  0  0  0  0  0  0  0  0  0
    4.3092   -0.3916   -1.4764 H   0  0  0  0  0  0  0  0  0  0  0  0
    5.0403   -1.9841   -1.7215 H   0  0  0  0  0  0  0  0  0  0  0  0
    5.5754    1.4501   -0.4350 H   0  0  0  0  0  0  0  0  0  0  0  0
    7.3849   -2.4037   -1.1141 H   0  0  0  0  0  0  0  0  0  0  0  0
    9.6174   -1.4119   -0.7494 H   0  0  0  0  0  0  0  0  0  0  0  0
    9.8380    1.0038   -0.2283 H   0  0  0  0  0  0  0  0  0  0  0  0
  1 32  1  0  0  0  0
  2  5  2  0  0  0  0
  2  6  2  0  0  0  0
  2 13  1  0  0  0  0
  2 25  1  0  0  0  0
  3 38  1  0  0  0  0
  4 15  1  0  0  0  0
  4 17  1  0  0  0  0
  7 31  1  0  0  0  0
  7 34  1  0  0  0  0
  8 12  1  0  0  0  0
  8 14  1  0  0  0  0
  8 47  1  0  0  0  0
  9 24  1  0  0  0  0
  9 27  1  0  0  0  0
  9 56  1  0  0  0  0
 10 22  1  0  0  0  0
 10 28  2  0  0  0  0
 11 24  2  0  0  0  0
 11 28  1  0  0  0  0
 12 13  1  0  0  0  0
 12 41  1  0  0  0  0
 12 42  1  0  0  0  0
 13 43  1  0  0  0  0
 13 44  1  0  0  0  0
 14 15  1  0  0  0  0
 14 45  1  0  0  0  0
 14 46  1  0  0  0  0
 15 20  2  0  0  0  0
 16 17  1  0  0  0  0
 16 19  2  0  0  0  0
 16 23  1  0  0  0  0
 17 21  2  0  0  0  0
 18 19  1  0  0  0  0
 18 22  2  0  0  0  0
 18 24  1  0  0  0  0
 19 48  1  0  0  0  0
 20 21  1  0  0  0  0
 20 49  1  0  0  0  0
 21 50  1  0  0  0  0
 22 26  1  0  0  0  0
 23 26  2  0  0  0  0
 23 51  1  0  0  0  0
 25 52  1  0  0  0  0
 25 53  1  0  0  0  0
 25 54  1  0  0  0  0
 26 55  1  0  0  0  0
 27 29  2  0  0  0  0
 27 30  1  0  0  0  0
 28 59  1  0  0  0  0
 29 32  1  0  0  0  0
 29 57  1  0  0  0  0
 30 33  2  0  0  0  0
 30 58  1  0  0  0  0
 31 32  2  0  0  0  0
 31 33  1  0  0  0  0
 33 60  1  0  0  0  0
 34 35  1  0  0  0  0
 34 61  1  0  0  0  0
 34 62  1  0  0  0  0
 35 36  2  0  0  0  0
 35 37  1  0  0  0  0
 36 38  1  0  0  0  0
 36 63  1  0  0  0  0
 37 39  2  0  0  0  0
 37 64  1  0  0  0  0
 38 40  2  0  0  0  0
 39 40  1  0  0  0  0
 39 65  1  0  0  0  0
 40 66  1  0  0  0  0
M  END
> <PUBCHEM_COMPOUND_CID>
208908

> <PUBCHEM_CONFORMER_RMSD>
1.4

> <PUBCHEM_CONFORMER_DIVERSEORDER>
1
84
34
39
59
26
81
55
41
56
45
31
2
51
16
6
8
47
10
67
60
76
63
52
87
29
43
12
42
9
88
77
82
5
24
17
37
80
72
69
75
50
46
57
3
86
48
68
11
90
23
61
85
21
70
53
79
27
20
19
14
38
91
40
35
13
4
73
74
66
64
18
58
36
44
7
65
30
25
22
15
89
33
49
54
71
78
83
28
32
62

> <PUBCHEM_MMFF94_PARTIAL_CHARGES>
54
1 -0.18
10 -0.62
11 -0.62
12 0.27
13 0.11
14 0.45
15 -0.04
16 0.05
17 0.09
19 -0.15
2 1.09
20 -0.15
21 -0.15
22 0.31
23 -0.15
24 0.41
25 0.11
26 -0.15
27 0.1
28 0.47
29 -0.15
3 -0.19
30 -0.15
31 0.08
32 0.18
33 -0.15
34 0.42
35 -0.14
36 -0.15
37 -0.15
38 0.19
39 -0.15
4 -0.28
40 -0.15
47 0.36
48 0.15
49 0.15
5 -0.65
50 0.15
51 0.15
55 0.15
56 0.4
57 0.15
58 0.15
59 0.15
6 -0.65
60 0.15
63 0.15
64 0.15
65 0.15
66 0.15
7 -0.36
8 -0.9
9 -0.6

> <PUBCHEM_EFFECTIVE_ROTOR_COUNT>
11

> <PUBCHEM_PHARMACOPHORE_FEATURES>
14
1 4 acceptor
1 5 acceptor
1 6 acceptor
1 7 acceptor
1 8 cation
1 8 donor
1 9 donor
3 10 11 28 cation
3 9 11 24 cation
5 4 15 17 20 21 rings
6 10 11 18 22 24 28 rings
6 16 18 19 22 23 26 rings
6 27 29 30 31 32 33 rings
6 35 36 37 38 39 40 rings

> <PUBCHEM_HEAVY_ATOM_COUNT>
40

> <PUBCHEM_ATOM_DEF_STEREO_COUNT>
0

> <PUBCHEM_ATOM_UDEF_STEREO_COUNT>
0

> <PUBCHEM_BOND_DEF_STEREO_COUNT>
0

> <PUBCHEM_BOND_UDEF_STEREO_COUNT>
0

> <PUBCHEM_ISOTOPIC_ATOM_COUNT>
0

> <PUBCHEM_COMPONENT_COUNT>
1

> <PUBCHEM_CACTVS_TAUTO_COUNT>
3

> <PUBCHEM_CONFORMER_ID>
0003300C00000001

> <PUBCHEM_MMFF94_ENERGY>
107.5014

> <PUBCHEM_FEATURE_SELFOVERLAP>
71.238

> <PUBCHEM_SHAPE_FINGERPRINT>
10049733 16 18411140212561025956
10454371 7 18412266103840848444
10675989 125 18120096069952919874
11181472 205 18113625574143192382
11410812 94 18410295805675335458
11476731 118 18340767135020024528
11973864 220 18261123997736268084
13165054 54 17532635873198970720
13347071 3 18341049709096542524
13383665 225 18188512224473253924
14294032 229 18042120969470448164
14394314 77 18266183837855598909
14512766 119 18334573546738017550
14747282 140 18265620884324414525
15145343 4 18409719678557379548
15320467 1 18267015056298540849
15347590 135 11458689595899525079
15361156 5 18201993322554109229
15406563 228 18187935018316348508
15538507 32 18410857616492791328
15890870 6 18335698283768843885
16728433 281 18342463612620880960
21033650 10 18333731351234100603
22121540 332 18201987842560856822
23191077 185 18043246835059282720
23559900 14 18126282175794827451
3918712 181 18263639555263860157
50677037 204 18337397023889465453
5265222 85 18194121807580619433
5776283 40 18412823565042467129
6036956 94 17831857950581913117
6376802 90 18410584984743454318
6475588 51 18408319978115758812
9961470 85 18269254907756367289

> <PUBCHEM_SHAPE_MULTIPOLES>
778.23
22.3
7.33
1.22
41.64
3.12
0.5
4.09
-8.19
-11.52
0.35
0.7
0.16
-0.04

> <PUBCHEM_SHAPE_SELFOVERLAP>
1677.615

> <PUBCHEM_SHAPE_VOLUME>
435.4

> <PUBCHEM_COORDINATE_TYPE>
2
5
10

$$$$
3062316
  -OEChem-11282412143D

 59 62  0     0  0  0  0  0  0999 V2000
    6.7400   -0.1413   -2.7242 Cl  0  0  0  0  0  0  0  0  0  0  0  0
    1.9410   -1.5807    0.2677 S   0  0  0  0  0  0  0  0  0  0  0  0
  -11.4327   -1.4393    0.5753 O   0  0  0  0  0  0  0  0  0  0  0  0
    4.8907   -2.1261    0.1851 O   0  0  0  0  0  0  0  0  0  0  0  0
   -7.9370   -0.7641   -0.3783 N   0  0  0  0  0  0  0  0  0  0  0  0
   -5.2361    0.1302   -0.1230 N   0  0  0  0  0  0  0  0  0  0  0  0
   -3.7481    2.0068   -0.1943 N   0  0  0  0  0  0  0  0  0  0  0  0
   -1.3702    1.6695    0.0024 N   0  0  0  0  0  0  0  0  0  0  0  0
   -0.5039   -0.5325    0.2677 N   0  0  0  0  0  0  0  0  0  0  0  0
    1.3474    0.9312    0.1244 N   0  0  0  0  0  0  0  0  0  0  0  0
    5.5775    0.0920    0.0598 N   0  0  0  0  0  0  0  0  0  0  0  0
   -6.8236   -1.6475   -0.7455 C   0  0  0  0  0  0  0  0  0  0  0  0
   -7.5427    0.0955    0.7448 C   0  0  0  0  0  0  0  0  0  0  0  0
   -5.5937   -0.8381   -1.1641 C   0  0  0  0  0  0  0  0  0  0  0  0
   -6.3376    0.9635    0.3751 C   0  0  0  0  0  0  0  0  0  0  0  0
   -9.1218   -1.5484   -0.0324 C   0  0  0  0  0  0  0  0  0  0  0  0
   -3.9412    0.6591   -0.0822 C   0  0  0  0  0  0  0  0  0  0  0  0
  -10.3022   -0.6364    0.2616 C   0  0  0  0  0  0  0  0  0  0  0  0
   -2.8648   -0.2159    0.0744 C   0  0  0  0  0  0  0  0  0  0  0  0
   -1.6044    0.3451    0.1095 C   0  0  0  0  0  0  0  0  0  0  0  0
   -2.4710    2.4311   -0.1449 C   0  0  0  0  0  0  0  0  0  0  0  0
   -2.2524    3.9011   -0.2666 C   0  0  0  0  0  0  0  0  0  0  0  0
    0.8349   -0.2729    0.2149 C   0  0  0  0  0  0  0  0  0  0  0  0
    3.2312   -0.4560    0.1595 C   0  0  0  0  0  0  0  0  0  0  0  0
    6.9875   -0.0402   -0.0050 C   0  0  0  0  0  0  0  0  0  0  0  0
    2.7240    0.8248    0.0931 C   0  0  0  0  0  0  0  0  0  0  0  0
    7.7118   -0.0527    1.1771 C   0  0  0  0  0  0  0  0  0  0  0  0
    4.5808   -0.9105    0.1506 C   0  0  0  0  0  0  0  0  0  0  0  0
    7.6164   -0.1538   -1.2348 C   0  0  0  0  0  0  0  0  0  0  0  0
    9.0997   -0.1821    1.1278 C   0  0  0  0  0  0  0  0  0  0  0  0
    7.0499    0.0689    2.5118 C   0  0  0  0  0  0  0  0  0  0  0  0
    9.0043   -0.2832   -1.2842 C   0  0  0  0  0  0  0  0  0  0  0  0
    9.7460   -0.2973   -0.1030 C   0  0  0  0  0  0  0  0  0  0  0  0
   -7.1141   -2.2874   -1.5877 H   0  0  0  0  0  0  0  0  0  0  0  0
   -6.5601   -2.3083    0.0915 H   0  0  0  0  0  0  0  0  0  0  0  0
   -7.3062   -0.5062    1.6326 H   0  0  0  0  0  0  0  0  0  0  0  0
   -8.3289    0.8019    1.0231 H   0  0  0  0  0  0  0  0  0  0  0  0
   -5.7949   -0.3020   -2.1006 H   0  0  0  0  0  0  0  0  0  0  0  0
   -4.7743   -1.5382   -1.3631 H   0  0  0  0  0  0  0  0  0  0  0  0
   -6.6187    1.6974   -0.3913 H   0  0  0  0  0  0  0  0  0  0  0  0
   -6.0255    1.5178    1.2694 H   0  0  0  0  0  0  0  0  0  0  0  0
   -8.9353   -2.2091    0.8250 H   0  0  0  0  0  0  0  0  0  0  0  0
   -9.3963   -2.2068   -0.8669 H   0  0  0  0  0  0  0  0  0  0  0  0
  -10.1566    0.0177    1.1233 H   0  0  0  0  0  0  0  0  0  0  0  0
  -10.5548   -0.0189   -0.6064 H   0  0  0  0  0  0  0  0  0  0  0  0
   -3.0145   -1.2856    0.1771 H   0  0  0  0  0  0  0  0  0  0  0  0
  -11.2131   -1.9614    1.3658 H   0  0  0  0  0  0  0  0  0  0  0  0
   -0.7782   -1.5056    0.3793 H   0  0  0  0  0  0  0  0  0  0  0  0
   -2.9527    4.4440    0.3755 H   0  0  0  0  0  0  0  0  0  0  0  0
   -2.4090    4.2142   -1.3031 H   0  0  0  0  0  0  0  0  0  0  0  0
   -1.2353    4.1760    0.0298 H   0  0  0  0  0  0  0  0  0  0  0  0
    3.2996    1.7376    0.0195 H   0  0  0  0  0  0  0  0  0  0  0  0
    5.2739    1.0598   -0.0067 H   0  0  0  0  0  0  0  0  0  0  0  0
    9.6932   -0.1958    2.0380 H   0  0  0  0  0  0  0  0  0  0  0  0
    7.7807    0.1281    3.3257 H   0  0  0  0  0  0  0  0  0  0  0  0
    6.4144   -0.8018    2.7033 H   0  0  0  0  0  0  0  0  0  0  0  0
    6.4418    0.9786    2.5591 H   0  0  0  0  0  0  0  0  0  0  0  0
    9.5237   -0.3741   -2.2349 H   0  0  0  0  0  0  0  0  0  0  0  0
   10.8267   -0.3983   -0.1415 H   0  0  0  0  0  0  0  0  0  0  0  0
  1 29  1  0  0  0  0
  2 23  1  0  0  0  0
  2 24  1  0  0  0  0
  3 18  1  0  0  0  0
  3 47  1  0  0  0  0
  4 28  2  0  0  0  0
  5 12  1  0  0  0  0
  5 13  1  0  0  0  0
  5 16  1  0  0  0  0
  6 14  1  0  0  0  0
  6 15  1  0  0  0  0
  6 17  1  0  0  0  0
  7 17  2  0  0  0  0
  7 21  1  0  0  0  0
  8 20  1  0  0  0  0
  8 21  2  0  0  0  0
  9 20  1  0  0  0  0
  9 23  1  0  0  0  0
  9 48  1  0  0  0  0
 10 23  2  0  0  0  0
 10 26  1  0  0  0  0
 11 25  1  0  0  0  0
 11 28  1  0  0  0  0
 11 53  1  0  0  0  0
 12 14  1  0  0  0  0
 12 34  1  0  0  0  0
 12 35  1  0  0  0  0
 13 15  1  0  0  0  0
 13 36  1  0  0  0  0
 13 37  1  0  0  0  0
 14 38  1  0  0  0  0
 14 39  1  0  0  0  0
 15 40  1  0  0  0  0
 15 41  1  0  0  0  0
 16 18  1  0  0  0  0
 16 42  1  0  0  0  0
 16 43  1  0  0  0  0
 17 19  1  0  0  0  0
 18 44  1  0  0  0  0
 18 45  1  0  0  0  0
 19 20  2  0  0  0  0
 19 46  1  0  0  0  0
 21 22  1  0  0  0  0
 22 49  1  0  0  0  0
 22 50  1  0  0  0  0
 22 51  1  0  0  0  0
 24 26  2  0  0  0  0
 24 28  1  0  0  0  0
 25 27  2  0  0  0  0
 25 29  1  0  0  0  0
 26 52  1  0  0  0  0
 27 30  1  0  0  0  0
 27 31  1  0  0  0  0
 29 32  2  0  0  0  0
 30 33  2  0  0  0  0
 30 54  1  0  0  0  0
 31 55  1  0  0  0  0
 31 56  1  0  0  0  0
 31 57  1  0  0  0  0
 32 33  1  0  0  0  0
 32 58  1  0  0  0  0
 33 59  1  0  0  0  0
M  END
> <PUBCHEM_COMPOUND_CID>
3062316

> <PUBCHEM_CONFORMER_RMSD>
1

> <PUBCHEM_CONFORMER_DIVERSEORDER>
1
151
180
145
163
50
72
57
56
79
185
87
97
113
62
101
43
128
210
111
162
58
179
78
108
167
143
212
156
28
91
165
223
118
89
181
37
42
166
202
94
136
22
224
209
75
198
226
30
141
170
52
84
119
207
49
139
153
73
196
211
188
183
124
147
60
133
225
137
46
131
135
171
150
125
206
120
189
184
85
98
92
123
216
193
66
59
53
154
44
70
115
194
149
221
220
213
144
215
24
191
96
41
159
172
40
116
86
32
69
208
47
138
122
51
186
218
71
201
21
217
80
54
177
63
192
106
110
178
129
214
112
219
39
204
48
197
142
45
38
203
34
82
68
173
195
199
76
176
146
14
26
83
168
105
148
88
104
205
155
152
16
130
77
95
64
107
33
23
200
99
102
158
169
174
175
65
190
126
18
100
19
29
114
134
93
160
127
140
8
6
222
164
67
61
81
31
20
109
182
187
11
55
12
103
90
132
121
9
10
5
36
13
27
17
157
74
15
25
2
161
117
3
35
4
7

> <PUBCHEM_MMFF94_PARTIAL_CHARGES>
41
1 -0.18
10 -0.57
11 -0.55
12 0.27
13 0.27
14 0.37
15 0.37
16 0.27
17 0.41
18 0.28
19 -0.15
2 -0.08
20 0.41
21 0.48
22 0.14
23 0.46
24 -0.05
25 0.12
26 0.08
27 -0.14
28 0.71
29 0.18
3 -0.68
30 -0.15
31 0.14
32 -0.15
33 -0.15
4 -0.57
46 0.15
47 0.4
48 0.4
5 -0.81
52 0.15
53 0.37
54 0.15
58 0.15
59 0.15
6 -0.84
7 -0.62
8 -0.62
9 -0.58

> <PUBCHEM_EFFECTIVE_ROTOR_COUNT>
9.2

> <PUBCHEM_PHARMACOPHORE_FEATURES>
13
1 11 donor
1 3 acceptor
1 3 donor
1 4 acceptor
1 5 cation
1 9 donor
3 6 7 17 cation
3 7 8 21 cation
3 9 10 23 cation
5 2 10 23 24 26 rings
6 25 27 29 30 32 33 rings
6 5 6 12 13 14 15 rings
6 7 8 17 19 20 21 rings

> <PUBCHEM_HEAVY_ATOM_COUNT>
33

> <PUBCHEM_ATOM_DEF_STEREO_COUNT>
0

> <PUBCHEM_ATOM_UDEF_STEREO_COUNT>
0

> <PUBCHEM_BOND_DEF_STEREO_COUNT>
0

> <PUBCHEM_BOND_UDEF_STEREO_COUNT>
0

> <PUBCHEM_ISOTOPIC_ATOM_COUNT>
0

> <PUBCHEM_COMPONENT_COUNT>
1

> <PUBCHEM_CACTVS_TAUTO_COUNT>
11

> <PUBCHEM_CONFORMER_ID>
002EBA2C00000001

> <PUBCHEM_MMFF94_ENERGY>
114.0313

> <PUBCHEM_FEATURE_SELFOVERLAP>
66.099

> <PUBCHEM_SHAPE_FINGERPRINT>
10076449 9 18410012139759148417
10162869 55 17095524003105301100
11315181 36 16877950429433382233
12082328 90 16773519876047514232
12089408 11 17967251967059999888
14118638 360 18335701586108090442
14251764 18 17967250880401391672
14251764 46 17167861972207658139
14344974 52 13551478094579774719
15061470 23 16225760818620711903
15131766 46 15432033386472966702
15183329 4 18187368710505089764
15328684 2 17751064839640053544
15347591 1 18121497951656885430
15419008 47 17917703587998940424
15461852 350 18333732399226478780
15510794 2 16774080682991668167
16120349 18 16008750221705537478
16992752 21 18410295796700844109
18335252 98 18343019973614174878
18608769 82 18343578555622642946
19315958 150 15841559574011688687
20105231 36 17847065471450060110
21130935 74 18198059179465963162
21150785 3 17821447958597723142
21267235 1 18412263948210331909
21403212 168 10375875169472941877
22164985 6 17749104534402090895
232437 2 18411138038927662163
23729398 52 18118129302055988709
3044373 193 17704355494559681636
3092352 35 18113616769460261562
335507 130 18413388743629844549
34797466 226 17561361786752880120
3552219 110 17846223275982787201
4017518 198 17346595280169785415
54039377 194 18334858347042632391
67123 10 18410856568229737163
9663363 56 18410008841772650879
9962374 69 18334853970011826637

> <PUBCHEM_SHAPE_MULTIPOLES>
638.24
38.82
2.05
1.36
21.85
1.97
0.25
-15.85
-1.28
3.78
0.21
-4.03
-0.12
0.04

> <PUBCHEM_SHAPE_SELFOVERLAP>
1338.023

> <PUBCHEM_SHAPE_VOLUME>
363.5

> <PUBCHEM_COORDINATE_TYPE>
2
5
10

$$$$
9797919
  -OEChem-11282412143D

 40 42  0     0  0  0  0  0  0999 V2000
   -6.2772   -2.3878   -0.0392 Cl  0  0  0  0  0  0  0  0  0  0  0  0
   -0.8318    1.2882   -1.8754 O   0  0  0  0  0  0  0  0  0  0  0  0
    1.8606    0.4593    0.0256 N   0  0  0  0  0  0  0  0  0  0  0  0
   -1.5398    1.1166    0.3550 N   0  0  0  0  0  0  0  0  0  0  0  0
    3.0178   -4.4016   -0.1641 N   0  0  0  0  0  0  0  0  0  0  0  0
    1.6507    1.8555    0.0757 C   0  0  0  0  0  0  0  0  0  0  0  0
    0.4141    2.4064   -0.2603 C   0  0  0  0  0  0  0  0  0  0  0  0
    3.1095   -0.1486    0.3610 C   0  0  0  0  0  0  0  0  0  0  0  0
    3.0766   -1.6383    0.1770 C   0  0  0  0  0  0  0  0  0  0  0  0
    2.7006    2.6857    0.4682 C   0  0  0  0  0  0  0  0  0  0  0  0
    0.2275    3.7876   -0.2041 C   0  0  0  0  0  0  0  0  0  0  0  0
   -0.7029    1.5664   -0.6739 C   0  0  0  0  0  0  0  0  0  0  0  0
    2.5139    4.0669    0.5244 C   0  0  0  0  0  0  0  0  0  0  0  0
    1.2774    4.6179    0.1882 C   0  0  0  0  0  0  0  0  0  0  0  0
   -2.6765    0.2765    0.2604 C   0  0  0  0  0  0  0  0  0  0  0  0
    3.4313   -2.1883   -1.0441 C   0  0  0  0  0  0  0  0  0  0  0  0
    2.6929   -2.4530    1.2296 C   0  0  0  0  0  0  0  0  0  0  0  0
   -3.0659   -0.1969   -0.9809 C   0  0  0  0  0  0  0  0  0  0  0  0
   -3.3717   -0.0525    1.4112 C   0  0  0  0  0  0  0  0  0  0  0  0
    3.3856   -3.5679   -1.1629 C   0  0  0  0  0  0  0  0  0  0  0  0
    2.6801   -3.8210    1.0090 C   0  0  0  0  0  0  0  0  0  0  0  0
   -4.1847   -1.0246   -1.0740 C   0  0  0  0  0  0  0  0  0  0  0  0
   -4.4907   -0.8802    1.3181 C   0  0  0  0  0  0  0  0  0  0  0  0
   -4.8972   -1.3663    0.0755 C   0  0  0  0  0  0  0  0  0  0  0  0
    3.3787    0.0692    1.4031 H   0  0  0  0  0  0  0  0  0  0  0  0
    3.9190    0.2549   -0.2618 H   0  0  0  0  0  0  0  0  0  0  0  0
    1.0803   -0.1256   -0.2515 H   0  0  0  0  0  0  0  0  0  0  0  0
    3.6798    2.3049    0.7412 H   0  0  0  0  0  0  0  0  0  0  0  0
   -0.7314    4.2293   -0.4635 H   0  0  0  0  0  0  0  0  0  0  0  0
    3.3308    4.7140    0.8304 H   0  0  0  0  0  0  0  0  0  0  0  0
    1.1321    5.6934    0.2322 H   0  0  0  0  0  0  0  0  0  0  0  0
   -1.3099    1.4227    1.2985 H   0  0  0  0  0  0  0  0  0  0  0  0
    3.7335   -1.5735   -1.8847 H   0  0  0  0  0  0  0  0  0  0  0  0
    2.4086   -2.0486    2.1947 H   0  0  0  0  0  0  0  0  0  0  0  0
   -2.5688    0.0209   -1.9141 H   0  0  0  0  0  0  0  0  0  0  0  0
   -3.0632    0.3206    2.3838 H   0  0  0  0  0  0  0  0  0  0  0  0
    3.6517   -4.0543   -2.0956 H   0  0  0  0  0  0  0  0  0  0  0  0
    2.3874   -4.5076    1.7965 H   0  0  0  0  0  0  0  0  0  0  0  0
   -4.4909   -1.3969   -2.0484 H   0  0  0  0  0  0  0  0  0  0  0  0
   -5.0361   -1.1382    2.2222 H   0  0  0  0  0  0  0  0  0  0  0  0
  1 24  1  0  0  0  0
  2 12  2  0  0  0  0
  3  6  1  0  0  0  0
  3  8  1  0  0  0  0
  3 27  1  0  0  0  0
  4 12  1  0  0  0  0
  4 15  1  0  0  0  0
  4 32  1  0  0  0  0
  5 20  2  0  0  0  0
  5 21  1  0  0  0  0
  6  7  1  0  0  0  0
  6 10  2  0  0  0  0
  7 11  2  0  0  0  0
  7 12  1  0  0  0  0
  8  9  1  0  0  0  0
  8 25  1  0  0  0  0
  8 26  1  0  0  0  0
  9 16  2  0  0  0  0
  9 17  1  0  0  0  0
 10 13  1  0  0  0  0
 10 28  1  0  0  0  0
 11 14  1  0  0  0  0
 11 29  1  0  0  0  0
 13 14  2  0  0  0  0
 13 30  1  0  0  0  0
 14 31  1  0  0  0  0
 15 18  2  0  0  0  0
 15 19  1  0  0  0  0
 16 20  1  0  0  0  0
 16 33  1  0  0  0  0
 17 21  2  0  0  0  0
 17 34  1  0  0  0  0
 18 22  1  0  0  0  0
 18 35  1  0  0  0  0
 19 23  2  0  0  0  0
 19 36  1  0  0  0  0
 20 37  1  0  0  0  0
 21 38  1  0  0  0  0
 22 24  2  0  0  0  0
 22 39  1  0  0  0  0
 23 24  1  0  0  0  0
 23 40  1  0  0  0  0
M  END
> <PUBCHEM_COMPOUND_CID>
9797919

> <PUBCHEM_CONFORMER_RMSD>
0.8

> <PUBCHEM_CONFORMER_DIVERSEORDER>
1
6
12
8
20
26
10
25
23
11
28
19
4
22
18
9
5
15
16
7
17
3
24
2
27
14
21
13

> <PUBCHEM_MMFF94_PARTIAL_CHARGES>
38
1 -0.18
10 -0.15
11 -0.15
12 0.54
13 -0.15
14 -0.15
15 0.12
16 -0.15
17 -0.15
18 -0.15
19 -0.15
2 -0.57
20 0.16
21 0.16
22 -0.15
23 -0.15
24 0.18
27 0.4
28 0.15
29 0.15
3 -0.87
30 0.15
31 0.15
32 0.37
33 0.15
34 0.15
35 0.15
36 0.15
37 0.15
38 0.15
39 0.15
4 -0.55
40 0.15
5 -0.62
6 0.1
7 0.09
8 0.51
9 -0.14

> <PUBCHEM_EFFECTIVE_ROTOR_COUNT>
6

> <PUBCHEM_PHARMACOPHORE_FEATURES>
8
1 2 acceptor
1 3 cation
1 3 donor
1 4 donor
1 5 acceptor
6 15 18 19 22 23 24 rings
6 5 9 16 17 20 21 rings
6 6 7 10 11 13 14 rings

> <PUBCHEM_HEAVY_ATOM_COUNT>
24

> <PUBCHEM_ATOM_DEF_STEREO_COUNT>
0

> <PUBCHEM_ATOM_UDEF_STEREO_COUNT>
0

> <PUBCHEM_BOND_DEF_STEREO_COUNT>
0

> <PUBCHEM_BOND_UDEF_STEREO_COUNT>
0

> <PUBCHEM_ISOTOPIC_ATOM_COUNT>
0

> <PUBCHEM_COMPONENT_COUNT>
1

> <PUBCHEM_CACTVS_TAUTO_COUNT>
5

> <PUBCHEM_CONFORMER_ID>
0095811F00000001

> <PUBCHEM_MMFF94_ENERGY>
85.3252

> <PUBCHEM_FEATURE_SELFOVERLAP>
40.596

> <PUBCHEM_SHAPE_FINGERPRINT>
10928967 22 18193287294933859755
11049842 53 14853260171820504305
114674 6 18260267498650155523
11991303 11 17467917815028563900
12107183 9 18198921214695607737
12173636 292 9005328435986257104
12293681 25 18046592699575423013
12553582 1 18339079289828322662
12788726 201 17758688741069562682
12990986 174 17977379430971602010
13533116 47 18338805632335552283
13631057 29 18191877713064292278
13692114 37 17550943028746597488
13785724 45 18198917928634091191
138480 1 18410854347937444962
14251757 5 17475803048439085766
14844126 61 17543347159855888026
14863182 85 18263927816320566332
14866123 147 17618784652864640585
15142526 21 17266375142939156537
15422964 175 18338786828420422256
17492 89 18341334465892361019
17818456 19 17845387557061939105
17859628 70 18339081600451993719
19427546 62 17617095149990311121
20028762 73 18127126609625396046
20645477 70 18189606319176986913
20775530 9 18189062992528357466
21133410 38 17694242345152755019
21133410 58 18266716066651686367
21197605 99 17759807339817741755
21285901 2 17459454710709453853
22849339 104 17261046420032617462
23728640 28 17113815190149476632
23845131 108 17404576070674622353
3117164 225 18269005211073446033
3421961 26 18410854382228728505
3737641 26 18340497651528077198
463206 1 18261963950782355547
5265222 85 15601186150514548950
5309563 4 18411418367216819502
613672 6 18122600804600770126
7097593 13 18343309171274575185
86090 222 17459206221118877211
9658208 31 17404305591051910296
9777508 108 16828118676787646176

> <PUBCHEM_SHAPE_MULTIPOLES>
474.97
10.14
6.61
1.24
17.77
0.29
0.08
-9.31
-0.68
-10.64
-0.17
0.37
-0.49
0.59

> <PUBCHEM_SHAPE_SELFOVERLAP>
1020.869

> <PUBCHEM_SHAPE_VOLUME>
261.1

> <PUBCHEM_COORDINATE_TYPE>
2
5
10

$$$$
53235510
  -OEChem-11282412143D

 69 72  0     0  0  0  0  0  0999 V2000
    0.6980   -0.7695    2.4879 Cl  0  0  0  0  0  0  0  0  0  0  0  0
    2.3056   -3.0014   -2.2068 Cl  0  0  0  0  0  0  0  0  0  0  0  0
   -0.2756   -4.4613   -1.9920 O   0  0  0  0  0  0  0  0  0  0  0  0
   -1.6789   -2.5151    2.0979 O   0  0  0  0  0  0  0  0  0  0  0  0
    3.5305   -1.9470    2.1560 O   0  0  0  0  0  0  0  0  0  0  0  0
   -6.0762    0.9845    0.1433 N   0  0  0  0  0  0  0  0  0  0  0  0
   -3.2995    1.6219   -0.0640 N   0  0  0  0  0  0  0  0  0  0  0  0
    2.0019    3.3527   -0.5664 N   0  0  0  0  0  0  0  0  0  0  0  0
    4.2630    3.1749   -1.2689 N   0  0  0  0  0  0  0  0  0  0  0  0
    4.6647   -0.3020    0.9219 N   0  0  0  0  0  0  0  0  0  0  0  0
    5.6081    1.3246   -0.5111 N   0  0  0  0  0  0  0  0  0  0  0  0
    2.5659   -1.1993    0.1789 N   0  0  0  0  0  0  0  0  0  0  0  0
   -5.2440    0.3547   -0.8891 C   0  0  0  0  0  0  0  0  0  0  0  0
   -5.2771    1.2232    1.3517 C   0  0  0  0  0  0  0  0  0  0  0  0
   -4.0586    1.2487   -1.2615 C   0  0  0  0  0  0  0  0  0  0  0  0
   -4.0938    2.1469    1.0538 C   0  0  0  0  0  0  0  0  0  0  0  0
   -7.2338    0.1456    0.4514 C   0  0  0  0  0  0  0  0  0  0  0  0
   -1.9745    2.0542   -0.1889 C   0  0  0  0  0  0  0  0  0  0  0  0
   -8.0966   -0.0730   -0.7799 C   0  0  0  0  0  0  0  0  0  0  0  0
   -1.0161    1.2116   -0.7523 C   0  0  0  0  0  0  0  0  0  0  0  0
   -1.6120    3.3277    0.2497 C   0  0  0  0  0  0  0  0  0  0  0  0
    0.3046    1.6424   -0.8769 C   0  0  0  0  0  0  0  0  0  0  0  0
   -0.2912    3.7586    0.1252 C   0  0  0  0  0  0  0  0  0  0  0  0
    0.6670    2.9160   -0.4382 C   0  0  0  0  0  0  0  0  0  0  0  0
    3.2340    2.6703   -0.5571 C   0  0  0  0  0  0  0  0  0  0  0  0
    3.3139    1.5140    0.1918 C   0  0  0  0  0  0  0  0  0  0  0  0
    4.5378    0.8767    0.1774 C   0  0  0  0  0  0  0  0  0  0  0  0
    5.4038    2.4623   -1.2021 C   0  0  0  0  0  0  0  0  0  0  0  0
    3.5578   -1.2124    1.1675 C   0  0  0  0  0  0  0  0  0  0  0  0
    1.3774   -1.9678    0.1376 C   0  0  0  0  0  0  0  0  0  0  0  0
    6.0127   -0.7063    1.4272 C   0  0  0  0  0  0  0  0  0  0  0  0
    0.4343   -1.8503    1.1585 C   0  0  0  0  0  0  0  0  0  0  0  0
    1.1491   -2.8416   -0.9256 C   0  0  0  0  0  0  0  0  0  0  0  0
   -0.0222   -3.5979   -0.9676 C   0  0  0  0  0  0  0  0  0  0  0  0
   -0.7369   -2.6068    1.1166 C   0  0  0  0  0  0  0  0  0  0  0  0
   -0.9651   -3.4805    0.0534 C   0  0  0  0  0  0  0  0  0  0  0  0
   -0.9741   -3.9392   -3.1200 C   0  0  0  0  0  0  0  0  0  0  0  0
   -2.7042   -1.5402    1.9210 C   0  0  0  0  0  0  0  0  0  0  0  0
   -5.8012    0.1965   -1.8178 H   0  0  0  0  0  0  0  0  0  0  0  0
   -4.8780   -0.6242   -0.5529 H   0  0  0  0  0  0  0  0  0  0  0  0
   -4.9143    0.2764    1.7695 H   0  0  0  0  0  0  0  0  0  0  0  0
   -5.8960    1.7002    2.1215 H   0  0  0  0  0  0  0  0  0  0  0  0
   -4.4126    2.1589   -1.7626 H   0  0  0  0  0  0  0  0  0  0  0  0
   -3.4320    0.7069   -1.9794 H   0  0  0  0  0  0  0  0  0  0  0  0
   -3.4877    2.2186    1.9658 H   0  0  0  0  0  0  0  0  0  0  0  0
   -4.4668    3.1500    0.8098 H   0  0  0  0  0  0  0  0  0  0  0  0
   -7.8492    0.6492    1.2072 H   0  0  0  0  0  0  0  0  0  0  0  0
   -6.9359   -0.8244    0.8691 H   0  0  0  0  0  0  0  0  0  0  0  0
   -8.2955    0.8653   -1.3090 H   0  0  0  0  0  0  0  0  0  0  0  0
   -7.6558   -0.7901   -1.4789 H   0  0  0  0  0  0  0  0  0  0  0  0
   -9.0649   -0.4877   -0.4776 H   0  0  0  0  0  0  0  0  0  0  0  0
   -1.2788    0.2139   -1.0946 H   0  0  0  0  0  0  0  0  0  0  0  0
   -2.3318    4.0191    0.6778 H   0  0  0  0  0  0  0  0  0  0  0  0
    1.0227    0.9754   -1.3451 H   0  0  0  0  0  0  0  0  0  0  0  0
   -0.0202    4.7542    0.4671 H   0  0  0  0  0  0  0  0  0  0  0  0
    2.0747    4.2915   -0.9487 H   0  0  0  0  0  0  0  0  0  0  0  0
    2.4921    1.1951    0.8188 H   0  0  0  0  0  0  0  0  0  0  0  0
    6.2468    2.8448   -1.7643 H   0  0  0  0  0  0  0  0  0  0  0  0
    5.9408   -1.6003    2.0514 H   0  0  0  0  0  0  0  0  0  0  0  0
    6.6555   -0.9258    0.5696 H   0  0  0  0  0  0  0  0  0  0  0  0
    6.4286    0.1173    2.0145 H   0  0  0  0  0  0  0  0  0  0  0  0
    2.9275   -0.9696   -0.7450 H   0  0  0  0  0  0  0  0  0  0  0  0
   -1.8776   -4.0710    0.0213 H   0  0  0  0  0  0  0  0  0  0  0  0
   -0.4608   -3.0665   -3.5356 H   0  0  0  0  0  0  0  0  0  0  0  0
   -1.0161   -4.7174   -3.8869 H   0  0  0  0  0  0  0  0  0  0  0  0
   -1.9974   -3.6701   -2.8393 H   0  0  0  0  0  0  0  0  0  0  0  0
   -3.3995   -1.6201    2.7610 H   0  0  0  0  0  0  0  0  0  0  0  0
   -3.2543   -1.7264    0.9936 H   0  0  0  0  0  0  0  0  0  0  0  0
   -2.2833   -0.5310    1.9123 H   0  0  0  0  0  0  0  0  0  0  0  0
  1 32  1  0  0  0  0
  2 33  1  0  0  0  0
  3 34  1  0  0  0  0
  3 37  1  0  0  0  0
  4 35  1  0  0  0  0
  4 38  1  0  0  0  0
  5 29  2  0  0  0  0
  6 13  1  0  0  0  0
  6 14  1  0  0  0  0
  6 17  1  0  0  0  0
  7 15  1  0  0  0  0
  7 16  1  0  0  0  0
  7 18  1  0  0  0  0
  8 24  1  0  0  0  0
  8 25  1  0  0  0  0
  8 56  1  0  0  0  0
  9 25  1  0  0  0  0
  9 28  2  0  0  0  0
 10 27  1  0  0  0  0
 10 29  1  0  0  0  0
 10 31  1  0  0  0  0
 11 27  2  0  0  0  0
 11 28  1  0  0  0  0
 12 29  1  0  0  0  0
 12 30  1  0  0  0  0
 12 62  1  0  0  0  0
 13 15  1  0  0  0  0
 13 39  1  0  0  0  0
 13 40  1  0  0  0  0
 14 16  1  0  0  0  0
 14 41  1  0  0  0  0
 14 42  1  0  0  0  0
 15 43  1  0  0  0  0
 15 44  1  0  0  0  0
 16 45  1  0  0  0  0
 16 46  1  0  0  0  0
 17 19  1  0  0  0  0
 17 47  1  0  0  0  0
 17 48  1  0  0  0  0
 18 20  2  0  0  0  0
 18 21  1  0  0  0  0
 19 49  1  0  0  0  0
 19 50  1  0  0  0  0
 19 51  1  0  0  0  0
 20 22  1  0  0  0  0
 20 52  1  0  0  0  0
 21 23  2  0  0  0  0
 21 53  1  0  0  0  0
 22 24  2  0  0  0  0
 22 54  1  0  0  0  0
 23 24  1  0  0  0  0
 23 55  1  0  0  0  0
 25 26  2  0  0  0  0
 26 27  1  0  0  0  0
 26 57  1  0  0  0  0
 28 58  1  0  0  0  0
 30 32  2  0  0  0  0
 30 33  1  0  0  0  0
 31 59  1  0  0  0  0
 31 60  1  0  0  0  0
 31 61  1  0  0  0  0
 32 35  1  0  0  0  0
 33 34  2  0  0  0  0
 34 36  1  0  0  0  0
 35 36  2  0  0  0  0
 36 63  1  0  0  0  0
 37 64  1  0  0  0  0
 37 65  1  0  0  0  0
 37 66  1  0  0  0  0
 38 67  1  0  0  0  0
 38 68  1  0  0  0  0
 38 69  1  0  0  0  0
M  END
> <PUBCHEM_COMPOUND_CID>
53235510

> <PUBCHEM_CONFORMER_RMSD>
1.2

> <PUBCHEM_CONFORMER_DIVERSEORDER>
5
122
91
119
107
33
93
34
60
92
97
66
65
106
24
46
30
96
125
115
117
85
52
88
133
55
25
112
44
108
99
10
83
103
35
74
71
31
79
17
43
70
72
78
109
100
3
98
47
84
49
48
86
26
121
87
14
129
128
15
53
40
124
77
73
29
130
63
7
111
51
20
131
50
13
62
105
127
101
41
12
102
22
57
104
58
39
16
54
81
118
94
68
59
113
19
123
75
80
23
11
132
114
37
2
82
21
36
126
38
116
64
76
9
18
120
45
6
134
110
56
8
136
32
89
28
4
95
61
42
67
1
90
69
135
27

> <PUBCHEM_MMFF94_PARTIAL_CHARGES>
46
1 -0.18
10 -0.48
11 -0.62
12 -0.55
13 0.27
14 0.27
15 0.37
16 0.37
17 0.27
18 0.1
2 -0.18
20 -0.15
21 -0.15
22 -0.15
23 -0.15
24 0.1
25 0.41
26 -0.15
27 0.43
28 0.47
29 0.69
3 -0.36
30 0.12
31 0.3
32 0.18
33 0.18
34 0.08
35 0.08
36 -0.15
37 0.28
38 0.28
4 -0.36
5 -0.57
52 0.15
53 0.15
54 0.15
55 0.15
56 0.4
57 0.15
58 0.15
6 -0.81
62 0.37
63 0.15
7 -0.84
8 -0.6
9 -0.62

> <PUBCHEM_EFFECTIVE_ROTOR_COUNT>
11.2

> <PUBCHEM_PHARMACOPHORE_FEATURES>
13
1 12 donor
1 3 acceptor
1 4 acceptor
1 5 acceptor
1 6 cation
1 7 cation
1 8 cation
1 8 donor
3 9 11 28 cation
6 18 20 21 22 23 24 rings
6 30 32 33 34 35 36 rings
6 6 7 13 14 15 16 rings
6 9 11 25 26 27 28 rings

> <PUBCHEM_HEAVY_ATOM_COUNT>
38

> <PUBCHEM_ATOM_DEF_STEREO_COUNT>
0

> <PUBCHEM_ATOM_UDEF_STEREO_COUNT>
0

> <PUBCHEM_BOND_DEF_STEREO_COUNT>
0

> <PUBCHEM_BOND_UDEF_STEREO_COUNT>
0

> <PUBCHEM_ISOTOPIC_ATOM_COUNT>
0

> <PUBCHEM_COMPONENT_COUNT>
1

> <PUBCHEM_CACTVS_TAUTO_COUNT>
6

> <PUBCHEM_CONFORMER_ID>
032C4F3600000005

> <PUBCHEM_MMFF94_ENERGY>
173.8762

> <PUBCHEM_FEATURE_SELFOVERLAP>
65.975

> <PUBCHEM_SHAPE_FINGERPRINT>
10006869 2 18261106370477581106
10985338 15 17774139323313293050
11421498 54 17845936212984319601
11513181 2 18272098183915103662
12156800 1 17682718277074365774
13165054 235 18339908369378182487
13383661 66 16840805448409766262
1361 2 18342742897105734839
13692114 37 18200021979836323663
13751561 76 18263096456259020627
14725015 67 18188479177750465096
15297060 5 18059849597840361042
15664445 248 17832142727839022901
15927050 60 17980196714347783668
15968369 153 17837764887432298211
15968369 26 18048039575779210276
161222 619 18337689545996392795
19319366 153 17894908542858748888
20028762 73 18342176622478341717
20764821 26 18408605893708019997
20771845 140 18060695083511266591
21133410 90 17632009879054652936
21197605 99 18336270132388256051
21344244 181 18130804342928860998
25019877 29 17916849232856129582
27425 322 16009315438595277361
392239 28 18189055300568712041
6287921 2 17912083850112116809

> <PUBCHEM_SHAPE_MULTIPOLES>
733.29
13.6
5.83
2.13
15.78
2.39
-0.06
-7.17
0.68
-2.28
-3.01
-0.4
2.37
-1.48

> <PUBCHEM_SHAPE_SELFOVERLAP>
1541.75

> <PUBCHEM_SHAPE_VOLUME>
414

> <PUBCHEM_COORDINATE_TYPE>
2
5
10

$$$$
54758501
  -OEChem-11282412143D

 61 65  0     0  0  0  0  0  0999 V2000
    6.5431   -0.6990    0.2060 S   0  0  0  0  0  0  0  0  0  0  0  0
    3.4882   -1.5720    0.7748 O   0  0  0  0  0  0  0  0  0  0  0  0
   -2.8081   -3.6593    0.1859 O   0  0  0  0  0  0  0  0  0  0  0  0
   -3.6168    1.8645    0.0790 N   0  0  0  0  0  0  0  0  0  0  0  0
   -6.4310    1.3908    0.2011 N   0  0  0  0  0  0  0  0  0  0  0  0
    1.8917    2.5810   -0.6249 N   0  0  0  0  0  0  0  0  0  0  0  0
    4.2013    2.2652   -0.6964 N   0  0  0  0  0  0  0  0  0  0  0  0
    2.7187    0.5122    0.0697 N   0  0  0  0  0  0  0  0  0  0  0  0
   -0.6944   -3.3672   -0.8070 N   0  0  0  0  0  0  0  0  0  0  0  0
   -4.1250    0.5876    0.5896 C   0  0  0  0  0  0  0  0  0  0  0  0
   -4.5265    2.6018   -0.8069 C   0  0  0  0  0  0  0  0  0  0  0  0
   -5.5287    0.7633    1.1742 C   0  0  0  0  0  0  0  0  0  0  0  0
   -5.9166    2.7131   -0.1765 C   0  0  0  0  0  0  0  0  0  0  0  0
   -2.2401    2.0434   -0.0961 C   0  0  0  0  0  0  0  0  0  0  0  0
   -7.7811    1.5039    0.7518 C   0  0  0  0  0  0  0  0  0  0  0  0
   -1.6793    3.3137    0.0366 C   0  0  0  0  0  0  0  0  0  0  0  0
   -1.4283    0.9514   -0.4039 C   0  0  0  0  0  0  0  0  0  0  0  0
   -0.3071    3.4921   -0.1380 C   0  0  0  0  0  0  0  0  0  0  0  0
   -0.0561    1.1298   -0.5787 C   0  0  0  0  0  0  0  0  0  0  0  0
    0.5045    2.4002   -0.4457 C   0  0  0  0  0  0  0  0  0  0  0  0
    2.9997    1.7396   -0.4054 C   0  0  0  0  0  0  0  0  0  0  0  0
    5.2391    1.4169   -0.4679 C   0  0  0  0  0  0  0  0  0  0  0  0
    5.0494    0.1259    0.0232 C   0  0  0  0  0  0  0  0  0  0  0  0
    3.7589   -0.3159    0.2905 C   0  0  0  0  0  0  0  0  0  0  0  0
    6.6193    1.7065   -0.6861 C   0  0  0  0  0  0  0  0  0  0  0  0
    2.1652   -1.8909    0.9993 C   0  0  0  0  0  0  0  0  0  0  0  0
    7.4329    0.6452   -0.3613 C   0  0  0  0  0  0  0  0  0  0  0  0
    1.4041   -2.4676   -0.0174 C   0  0  0  0  0  0  0  0  0  0  0  0
    0.0659   -2.7890    0.2100 C   0  0  0  0  0  0  0  0  0  0  0  0
    1.5883   -1.6357    2.2433 C   0  0  0  0  0  0  0  0  0  0  0  0
   -0.5112   -2.5337    1.4540 C   0  0  0  0  0  0  0  0  0  0  0  0
    0.2500   -1.9570    2.4706 C   0  0  0  0  0  0  0  0  0  0  0  0
   -2.0404   -3.7559   -0.7642 C   0  0  0  0  0  0  0  0  0  0  0  0
   -2.4869   -4.3372   -2.0634 C   0  0  0  0  0  0  0  0  0  0  0  0
   -3.7427   -4.7676   -2.2200 C   0  0  0  0  0  0  0  0  0  0  0  0
   -4.1542   -0.1537   -0.2195 H   0  0  0  0  0  0  0  0  0  0  0  0
   -3.4732    0.1989    1.3822 H   0  0  0  0  0  0  0  0  0  0  0  0
   -4.1635    3.6156   -1.0111 H   0  0  0  0  0  0  0  0  0  0  0  0
   -4.5899    2.0814   -1.7714 H   0  0  0  0  0  0  0  0  0  0  0  0
   -5.9091   -0.2264    1.4552 H   0  0  0  0  0  0  0  0  0  0  0  0
   -5.4711    1.3635    2.0924 H   0  0  0  0  0  0  0  0  0  0  0  0
   -5.8710    3.3762    0.6980 H   0  0  0  0  0  0  0  0  0  0  0  0
   -6.5874    3.1815   -0.9069 H   0  0  0  0  0  0  0  0  0  0  0  0
   -8.4624    1.9390    0.0121 H   0  0  0  0  0  0  0  0  0  0  0  0
   -7.8111    2.1240    1.6551 H   0  0  0  0  0  0  0  0  0  0  0  0
   -8.1789    0.5136    1.0000 H   0  0  0  0  0  0  0  0  0  0  0  0
   -2.2924    4.1747    0.2902 H   0  0  0  0  0  0  0  0  0  0  0  0
   -1.8358   -0.0460   -0.5424 H   0  0  0  0  0  0  0  0  0  0  0  0
    0.1183    4.4864   -0.0282 H   0  0  0  0  0  0  0  0  0  0  0  0
    0.5275    0.2670   -0.8773 H   0  0  0  0  0  0  0  0  0  0  0  0
    2.1638    3.5330   -0.8512 H   0  0  0  0  0  0  0  0  0  0  0  0
    6.9976    2.6480   -1.0636 H   0  0  0  0  0  0  0  0  0  0  0  0
    8.5104    0.5965   -0.4307 H   0  0  0  0  0  0  0  0  0  0  0  0
    1.8610   -2.6641   -0.9846 H   0  0  0  0  0  0  0  0  0  0  0  0
    2.1754   -1.1868    3.0399 H   0  0  0  0  0  0  0  0  0  0  0  0
   -1.5394   -2.7517    1.7057 H   0  0  0  0  0  0  0  0  0  0  0  0
   -0.1983   -1.7567    3.4394 H   0  0  0  0  0  0  0  0  0  0  0  0
   -0.1940   -3.5178   -1.6807 H   0  0  0  0  0  0  0  0  0  0  0  0
   -1.7802   -4.4073   -2.8830 H   0  0  0  0  0  0  0  0  0  0  0  0
   -4.0568   -5.1886   -3.1695 H   0  0  0  0  0  0  0  0  0  0  0  0
   -4.4817   -4.7164   -1.4283 H   0  0  0  0  0  0  0  0  0  0  0  0
  1 23  1  0  0  0  0
  1 27  1  0  0  0  0
  2 24  1  0  0  0  0
  2 26  1  0  0  0  0
  3 33  2  0  0  0  0
  4 10  1  0  0  0  0
  4 11  1  0  0  0  0
  4 14  1  0  0  0  0
  5 12  1  0  0  0  0
  5 13  1  0  0  0  0
  5 15  1  0  0  0  0
  6 20  1  0  0  0  0
  6 21  1  0  0  0  0
  6 51  1  0  0  0  0
  7 21  2  0  0  0  0
  7 22  1  0  0  0  0
  8 21  1  0  0  0  0
  8 24  2  0  0  0  0
  9 29  1  0  0  0  0
  9 33  1  0  0  0  0
  9 58  1  0  0  0  0
 10 12  1  0  0  0  0
 10 36  1  0  0  0  0
 10 37  1  0  0  0  0
 11 13  1  0  0  0  0
 11 38  1  0  0  0  0
 11 39  1  0  0  0  0
 12 40  1  0  0  0  0
 12 41  1  0  0  0  0
 13 42  1  0  0  0  0
 13 43  1  0  0  0  0
 14 16  2  0  0  0  0
 14 17  1  0  0  0  0
 15 44  1  0  0  0  0
 15 45  1  0  0  0  0
 15 46  1  0  0  0  0
 16 18  1  0  0  0  0
 16 47  1  0  0  0  0
 17 19  2  0  0  0  0
 17 48  1  0  0  0  0
 18 20  2  0  0  0  0
 18 49  1  0  0  0  0
 19 20  1  0  0  0  0
 19 50  1  0  0  0  0
 22 23  2  0  0  0  0
 22 25  1  0  0  0  0
 23 24  1  0  0  0  0
 25 27  2  0  0  0  0
 25 52  1  0  0  0  0
 26 28  1  0  0  0  0
 26 30  2  0  0  0  0
 27 53  1  0  0  0  0
 28 29  2  0  0  0  0
 28 54  1  0  0  0  0
 29 31  1  0  0  0  0
 30 32  1  0  0  0  0
 30 55  1  0  0  0  0
 31 32  2  0  0  0  0
 31 56  1  0  0  0  0
 32 57  1  0  0  0  0
 33 34  1  0  0  0  0
 34 35  2  0  0  0  0
 34 59  1  0  0  0  0
 35 60  1  0  0  0  0
 35 61  1  0  0  0  0
M  END
> <PUBCHEM_COMPOUND_CID>
54758501

> <PUBCHEM_CONFORMER_RMSD>
1

> <PUBCHEM_CONFORMER_DIVERSEORDER>
1
15
87
72
83
165
54
20
200
195
213
93
108
206
27
159
111
208
216
76
207
125
149
180
2
183
126
146
4
68
49
25
100
69
99
173
152
127
47
14
147
137
71
44
66
157
84
142
37
53
61
189
192
160
156
114
91
138
36
19
135
199
168
212
65
81
119
151
123
121
35
196
41
48
29
124
205
26
89
144
16
101
112
96
107
122
154
174
58
162
70
50
45
219
187
177
95
167
46
21
17
193
198
117
116
33
201
73
172
98
86
210
103
163
158
134
18
55
161
62
166
148
63
88
215
155
150
34
191
129
179
6
145
218
42
217
194
59
164
102
5
51
77
82
139
190
136
115
221
79
184
141
203
56
143
104
97
7
105
131
52
3
128
85
186
94
78
13
67
113
109
39
120
214
153
90
110
185
43
40
175
12
9
171
30
209
31
22
130
80
8
169
220
23
32
92
182
10
188
176
75
202
197
74
170
211
204
28
24
64
181
178
133
57
106
38
11
132
118
60
140

> <PUBCHEM_MMFF94_PARTIAL_CHARGES>
50
1 -0.08
10 0.37
11 0.37
12 0.27
13 0.27
14 0.1
15 0.27
16 -0.15
17 -0.15
18 -0.15
19 -0.15
2 -0.17
20 0.1
21 0.72
22 0.26
23 0.04
24 0.39
25 -0.15
26 0.08
27 -0.11
28 -0.15
29 0.12
3 -0.57
30 -0.15
31 -0.15
32 -0.15
33 0.62
34 -0.14
35 -0.3
4 -0.84
47 0.15
48 0.15
49 0.15
5 -0.81
50 0.15
51 0.4
52 0.15
53 0.15
54 0.15
55 0.15
56 0.15
57 0.15
58 0.37
59 0.15
6 -0.6
60 0.15
61 0.15
7 -0.57
8 -0.62
9 -0.55

> <PUBCHEM_EFFECTIVE_ROTOR_COUNT>
9.2

> <PUBCHEM_PHARMACOPHORE_FEATURES>
12
1 3 acceptor
1 35 hydrophobe
1 4 cation
1 5 cation
1 6 donor
1 9 donor
4 6 7 8 21 cation
5 1 22 23 25 27 rings
6 14 16 17 18 19 20 rings
6 26 28 29 30 31 32 rings
6 4 5 10 11 12 13 rings
6 7 8 21 22 23 24 rings

> <PUBCHEM_HEAVY_ATOM_COUNT>
35

> <PUBCHEM_ATOM_DEF_STEREO_COUNT>
0

> <PUBCHEM_ATOM_UDEF_STEREO_COUNT>
0

> <PUBCHEM_BOND_DEF_STEREO_COUNT>
0

> <PUBCHEM_BOND_UDEF_STEREO_COUNT>
0

> <PUBCHEM_ISOTOPIC_ATOM_COUNT>
0

> <PUBCHEM_COMPONENT_COUNT>
1

> <PUBCHEM_CACTVS_TAUTO_COUNT>
6

> <PUBCHEM_CONFORMER_ID>
03438C6500000001

> <PUBCHEM_MMFF94_ENERGY>
121.1838

> <PUBCHEM_FEATURE_SELFOVERLAP>
60.978

> <PUBCHEM_SHAPE_FINGERPRINT>
10006869 2 18115021892419819082
10190206 1 18265042716620654118
10258939 38 17386570129019361229
1100329 8 18336549420926133820
11421498 54 17773034150918991224
11513181 2 18199185083926340199
11578080 2 17773580798072712720
12156800 1 18124005053032579632
12838862 33 18261660528733609088
1361 2 18337674109936555177
14068700 686 18120654634792146613
14394314 77 18410578366783861273
14681490 219 17906443686164045886
14840074 17 18410006594961604949
14866123 147 18338799025795103743
15264996 74 18129937996517889167
15297060 5 18131351903877823395
15444296 7 18334586762547221621
15629462 23 18046629176917881859
15664445 248 17545039304161503291
15927050 60 18411416228386007023
15968369 153 18049726522921495611
19311894 1 18340762740851178159
19319366 153 17968091984710316330
20642791 13 18050558849055705556
20737093 15 18123156110846586781
21133410 62 17895741934234194679
21133410 90 17560525121831802929
21197605 99 18260839202115931379
21344244 181 18057896757820809502
23536364 44 18119509171219113118
23559900 14 17402044501312686301
338550 245 18114190781898892748
3610482 184 18115322171649256726
38695281 34 18411421666231341397
463206 1 18408884074803991469
5171179 24 17841146967919482072
59521120 56 18201432631553492862

> <PUBCHEM_SHAPE_MULTIPOLES>
682.51
16.02
6.05
1.52
2.24
6.12
-0.34
-11.02
0.57
-7.29
2.87
-0.79
1.97
-3.24

> <PUBCHEM_SHAPE_SELFOVERLAP>
1472.946

> <PUBCHEM_SHAPE_VOLUME>
376.5

> <PUBCHEM_COORDINATE_TYPE>
2
5
10

$$$$
10113978
  -OEChem-11282412143D

 54 57  0     0  0  0  0  0  0999 V2000
    4.1848   -2.5656   -0.3934 S   0  0  0  0  0  0  0  0  0  0  0  0
    3.0881   -2.5884   -1.3492 O   0  0  0  0  0  0  0  0  0  0  0  0
    5.4000   -3.3187   -0.6639 O   0  0  0  0  0  0  0  0  0  0  0  0
   -6.5720   -0.9547   -0.7950 N   0  0  0  0  0  0  0  0  0  0  0  0
   -1.0158    0.0966    0.3859 N   0  0  0  0  0  0  0  0  0  0  0  0
   -5.4120   -1.0290   -1.4761 N   0  0  0  0  0  0  0  0  0  0  0  0
    3.0284    2.4404   -0.3213 N   0  0  0  0  0  0  0  0  0  0  0  0
    1.0327    1.2590    0.0350 N   0  0  0  0  0  0  0  0  0  0  0  0
    0.9978    3.5567   -0.6908 N   0  0  0  0  0  0  0  0  0  0  0  0
    3.5896   -3.0141    1.1434 N   0  0  0  0  0  0  0  0  0  0  0  0
   -5.1109   -0.3149    0.6590 C   0  0  0  0  0  0  0  0  0  0  0  0
   -4.4744   -0.6355   -0.5961 C   0  0  0  0  0  0  0  0  0  0  0  0
   -6.4501   -0.5298    0.4957 C   0  0  0  0  0  0  0  0  0  0  0  0
   -2.4275   -0.0620    0.4252 C   0  0  0  0  0  0  0  0  0  0  0  0
   -3.0807   -0.5121   -0.7432 C   0  0  0  0  0  0  0  0  0  0  0  0
   -4.4981    0.1294    1.8238 C   0  0  0  0  0  0  0  0  0  0  0  0
   -3.1049    0.2430    1.6476 C   0  0  0  0  0  0  0  0  0  0  0  0
   -7.6038   -0.3842    1.4035 C   0  0  0  0  0  0  0  0  0  0  0  0
   -0.3161    1.2732    0.0197 C   0  0  0  0  0  0  0  0  0  0  0  0
    4.6234   -0.8967   -0.1025 C   0  0  0  0  0  0  0  0  0  0  0  0
   -7.7980   -1.3189   -1.4682 C   0  0  0  0  0  0  0  0  0  0  0  0
    5.9002   -0.5518    0.3411 C   0  0  0  0  0  0  0  0  0  0  0  0
    3.9653    1.4638   -0.1052 C   0  0  0  0  0  0  0  0  0  0  0  0
   -0.2507   -1.1505    0.4950 C   0  0  0  0  0  0  0  0  0  0  0  0
    3.6696    0.0971   -0.3227 C   0  0  0  0  0  0  0  0  0  0  0  0
    6.2229    0.7866    0.5650 C   0  0  0  0  0  0  0  0  0  0  0  0
    5.2691    1.7802    0.3449 C   0  0  0  0  0  0  0  0  0  0  0  0
    1.6166    2.4175   -0.3259 C   0  0  0  0  0  0  0  0  0  0  0  0
   -1.0681    2.3745   -0.3338 C   0  0  0  0  0  0  0  0  0  0  0  0
    6.9448   -1.5910    0.5862 C   0  0  0  0  0  0  0  0  0  0  0  0
   -0.3502    3.4998   -0.6836 C   0  0  0  0  0  0  0  0  0  0  0  0
   -2.5598   -0.7400   -1.6645 H   0  0  0  0  0  0  0  0  0  0  0  0
   -4.9889    0.3658    2.7572 H   0  0  0  0  0  0  0  0  0  0  0  0
   -2.5150    0.5841    2.4994 H   0  0  0  0  0  0  0  0  0  0  0  0
   -8.2947    0.3790    1.0306 H   0  0  0  0  0  0  0  0  0  0  0  0
   -8.1501   -1.3289    1.4936 H   0  0  0  0  0  0  0  0  0  0  0  0
   -7.2990   -0.0872    2.4112 H   0  0  0  0  0  0  0  0  0  0  0  0
   -8.4864   -0.4717   -1.4197 H   0  0  0  0  0  0  0  0  0  0  0  0
   -7.5846   -1.5596   -2.5132 H   0  0  0  0  0  0  0  0  0  0  0  0
   -8.2202   -2.1926   -0.9659 H   0  0  0  0  0  0  0  0  0  0  0  0
    0.0936   -1.4758   -0.4931 H   0  0  0  0  0  0  0  0  0  0  0  0
   -0.8500   -1.9609    0.9275 H   0  0  0  0  0  0  0  0  0  0  0  0
    0.6198   -1.0241    1.1489 H   0  0  0  0  0  0  0  0  0  0  0  0
    2.7004   -0.1979   -0.7102 H   0  0  0  0  0  0  0  0  0  0  0  0
    7.2130    1.0738    0.9092 H   0  0  0  0  0  0  0  0  0  0  0  0
    5.5400    2.8187    0.5255 H   0  0  0  0  0  0  0  0  0  0  0  0
    3.3971    3.3772   -0.4528 H   0  0  0  0  0  0  0  0  0  0  0  0
   -2.1494    2.4055   -0.3521 H   0  0  0  0  0  0  0  0  0  0  0  0
    6.5853   -2.3898    1.2419 H   0  0  0  0  0  0  0  0  0  0  0  0
    7.3445   -1.9825   -0.3539 H   0  0  0  0  0  0  0  0  0  0  0  0
    7.8010   -1.1553    1.1168 H   0  0  0  0  0  0  0  0  0  0  0  0
   -0.8539    4.4148   -0.9765 H   0  0  0  0  0  0  0  0  0  0  0  0
    2.5771   -3.1599    1.2389 H   0  0  0  0  0  0  0  0  0  0  0  0
    4.1578   -3.6595    1.7056 H   0  0  0  0  0  0  0  0  0  0  0  0
  1  2  2  0  0  0  0
  1  3  2  0  0  0  0
  1 10  1  0  0  0  0
  1 20  1  0  0  0  0
  4  6  1  0  0  0  0
  4 13  1  0  0  0  0
  4 21  1  0  0  0  0
  5 14  1  0  0  0  0
  5 19  1  0  0  0  0
  5 24  1  0  0  0  0
  6 12  2  0  0  0  0
  7 23  1  0  0  0  0
  7 28  1  0  0  0  0
  7 47  1  0  0  0  0
  8 19  2  0  0  0  0
  8 28  1  0  0  0  0
  9 28  2  0  0  0  0
  9 31  1  0  0  0  0
 10 53  1  0  0  0  0
 10 54  1  0  0  0  0
 11 12  1  0  0  0  0
 11 13  2  0  0  0  0
 11 16  1  0  0  0  0
 12 15  1  0  0  0  0
 13 18  1  0  0  0  0
 14 15  2  0  0  0  0
 14 17  1  0  0  0  0
 15 32  1  0  0  0  0
 16 17  2  0  0  0  0
 16 33  1  0  0  0  0
 17 34  1  0  0  0  0
 18 35  1  0  0  0  0
 18 36  1  0  0  0  0
 18 37  1  0  0  0  0
 19 29  1  0  0  0  0
 20 22  2  0  0  0  0
 20 25  1  0  0  0  0
 21 38  1  0  0  0  0
 21 39  1  0  0  0  0
 21 40  1  0  0  0  0
 22 26  1  0  0  0  0
 22 30  1  0  0  0  0
 23 25  2  0  0  0  0
 23 27  1  0  0  0  0
 24 41  1  0  0  0  0
 24 42  1  0  0  0  0
 24 43  1  0  0  0  0
 25 44  1  0  0  0  0
 26 27  2  0  0  0  0
 26 45  1  0  0  0  0
 27 46  1  0  0  0  0
 29 31  2  0  0  0  0
 29 48  1  0  0  0  0
 30 49  1  0  0  0  0
 30 50  1  0  0  0  0
 30 51  1  0  0  0  0
 31 52  1  0  0  0  0
M  END
> <PUBCHEM_COMPOUND_CID>
10113978

> <PUBCHEM_CONFORMER_RMSD>
1

> <PUBCHEM_CONFORMER_DIVERSEORDER>
2
493
66
518
98
128
174
351
68
9
31
237
240
151
497
320
203
137
452
438
403
49
419
342
129
395
150
424
231
193
161
13
297
29
279
103
207
15
268
281
318
482
148
426
319
146
90
32
93
97
200
373
140
514
52
428
332
382
411
210
40
88
87
20
145
308
170
519
390
475
74
115
65
236
14
430
23
75
184
496
114
12
25
83
380
144
270
69
388
406
82
500
8
239
330
48
348
398
510
89
280
326
217
227
276
109
108
364
178
274
91
55
34
306
92
361
253
269
81
366
389
304
349
295
431
107
62
149
61
11
323
463
7
271
185
19
272
286
449
501
154
118
51
44
99
456
345
464
36
172
63
353
325
168
171
86
469
1
70
30
37
244
45
208
336
448
10
339
133
56
257
43
77
101
302
190
41
33
3
233
124
212
488
162
425
26
21
368
80
355
189
4
64
127
260
38
60
22

> <PUBCHEM_MMFF94_PARTIAL_CHARGES>
41
1 1.45
10 -0.98
12 0.29
13 -0.33
14 0.1
15 -0.15
16 -0.15
17 -0.15
18 0.18
19 0.41
2 -0.65
20 -0.01
21 0.26
22 -0.14
23 0.1
24 0.37
25 -0.15
26 -0.15
27 -0.15
28 0.72
29 -0.15
3 -0.65
30 0.14
31 0.16
32 0.15
33 0.15
34 0.15
4 0.31
44 0.15
45 0.15
46 0.15
47 0.4
48 0.15
5 -0.57
52 0.15
53 0.42
54 0.42
6 -0.71
7 -0.6
8 -0.62
9 -0.62

> <PUBCHEM_EFFECTIVE_ROTOR_COUNT>
5

> <PUBCHEM_PHARMACOPHORE_FEATURES>
10
1 10 donor
1 2 acceptor
1 3 acceptor
1 6 acceptor
1 7 donor
4 7 8 9 28 cation
5 4 6 11 12 13 rings
6 11 12 14 15 16 17 rings
6 20 22 23 25 26 27 rings
6 8 9 19 28 29 31 rings

> <PUBCHEM_HEAVY_ATOM_COUNT>
31

> <PUBCHEM_ATOM_DEF_STEREO_COUNT>
0

> <PUBCHEM_ATOM_UDEF_STEREO_COUNT>
0

> <PUBCHEM_BOND_DEF_STEREO_COUNT>
0

> <PUBCHEM_BOND_UDEF_STEREO_COUNT>
0

> <PUBCHEM_ISOTOPIC_ATOM_COUNT>
0

> <PUBCHEM_COMPONENT_COUNT>
1

> <PUBCHEM_CACTVS_TAUTO_COUNT>
3

> <PUBCHEM_CONFORMER_ID>
009A53BA00000002

> <PUBCHEM_MMFF94_ENERGY>
107.7916

> <PUBCHEM_FEATURE_SELFOVERLAP>
50.896

> <PUBCHEM_SHAPE_FINGERPRINT>
10 15 13542465379727435952
10693767 8 18339632417371230583
11211813 128 18341329995575548802
11409948 41 18270945913537142567
12166972 35 18272652406890930025
12202916 173 18333445444288769306
12236239 1 18060142076670944577
12422481 6 17915750785915661733
12596602 18 17060342929076651304
12623949 98 17987809497341575310
12760667 363 18334858303143679296
13150687 139 17971780959251801068
13533116 47 18272090517334994488
1361 2 18413390938564581746
13685833 64 18261112993295967801
13692114 37 17480315474236027329
13782708 43 17314243335595339459
13947947 19 18340210799663964006
13989917 61 18337959003344178290
14347332 77 18412825759733903013
1454969 45 18337677512089237052
14681490 219 18334571326329608569
14725015 67 18261665992458887722
14784336 7 17987232412381594841
14840074 17 18272932739126037550
15119646 104 18343303673489212583
15183329 4 18410855495031362301
15419008 47 17530961384939432013
15510800 12 18113908147560489874
17492 89 18194117405317645010
17852330 134 18263905676528410709
17857418 61 18202003243881063681
19301679 30 18409456860190381377
20511986 3 17917702534913618309
20554085 129 15195573368848004663
20721686 56 18335425651581468314
21197605 99 18413387644888836886
21279426 13 18187358775744639493
21315764 119 14996279193673626554
21365058 113 16878228649104692157
21682296 61 18408044000738702561
22224240 67 18201152269975573384
23559900 14 18262517138738758673
23569914 152 17542187222813311895
23569943 247 18338231575090925435
24771750 20 17174355876217040501
3004659 81 17749106703961935684
345986 75 18131351865091138912
34797466 226 16226338121932998885
3633792 109 18411131429953792087
394071 54 18412271657169973114
397830 11 11887377158461457447
4046055 4 18040999496937137324
46194498 28 17386002918594974620
463206 1 18338796835825921998
50009960 94 17679846138867477354
513202 73 18335702702773629349
5326457 24 18201718504930019199
6004065 56 18339358690082453105
6299153 45 18270974457921251585
9555976 147 16987731086562378747
9980921 52 17987497244112815815

> <PUBCHEM_SHAPE_MULTIPOLES>
595.21
20.59
3.48
1.26
15.79
1.09
-0.16
-12.41
-0.87
-5.74
1.01
2
-0.37
-0.57

> <PUBCHEM_SHAPE_SELFOVERLAP>
1286.801

> <PUBCHEM_SHAPE_VOLUME>
331.9

> <PUBCHEM_COORDINATE_TYPE>
2
5
10

$$$$
59215954
  -OEChem-11282412143D

 58 61  0     1  0  0  0  0  0999 V2000
   -6.8633    3.2379   -1.6754 F   0  0  0  0  0  0  0  0  0  0  0  0
    6.1830    2.1933    1.8053 O   0  0  0  0  0  0  0  0  0  0  0  0
    2.2976   -3.4909    0.2882 O   0  0  0  0  0  0  0  0  0  0  0  0
   -2.8946   -1.7209    1.6706 O   0  0  0  0  0  0  0  0  0  0  0  0
    5.2812    0.7055    0.3197 N   0  0  0  0  0  0  0  0  0  0  0  0
    2.8506   -1.2391    0.2502 N   0  0  0  0  0  0  0  0  0  0  0  0
    6.0801    2.8497   -0.3964 N   0  0  0  0  0  0  0  0  0  0  0  0
   -1.3729   -2.1857   -1.3271 N   0  0  0  0  0  0  0  0  0  0  0  0
   -4.9277   -0.5248    1.8009 N   0  0  0  0  0  0  0  0  0  0  0  0
    4.2259   -1.3959    0.6590 C   0  0  1  0  0  0  0  0  0  0  0  0
    5.1615   -1.4930   -0.5434 C   0  0  0  0  0  0  0  0  0  0  0  0
    4.7443   -0.1532    1.3749 C   0  0  0  0  0  0  0  0  0  0  0  0
    5.3684   -0.0345   -0.9402 C   0  0  0  0  0  0  0  0  0  0  0  0
    5.8562    1.9341    0.6386 C   0  0  0  0  0  0  0  0  0  0  0  0
    1.9911   -2.3169    0.0975 C   0  0  0  0  0  0  0  0  0  0  0  0
    0.6142   -1.9906   -0.3546 C   0  0  0  0  0  0  0  0  0  0  0  0
   -0.1253   -0.8065   -0.1131 C   0  0  0  0  0  0  0  0  0  0  0  0
   -0.1813   -2.8260   -1.1073 C   0  0  0  0  0  0  0  0  0  0  0  0
   -1.3502   -0.9544   -0.7254 C   0  0  0  0  0  0  0  0  0  0  0  0
    0.3332    0.3706    0.6548 C   0  0  0  0  0  0  0  0  0  0  0  0
   -2.4917   -0.1447   -0.8411 C   0  0  0  0  0  0  0  0  0  0  0  0
    5.2580    2.9774   -1.5945 C   0  0  0  0  0  0  0  0  0  0  0  0
    7.0797    3.8939   -0.2120 C   0  0  0  0  0  0  0  0  0  0  0  0
    0.0645   -4.1776   -1.6475 C   0  0  0  0  0  0  0  0  0  0  0  0
   -3.5759   -0.0775    0.0089 C   0  0  0  0  0  0  0  0  0  0  0  0
   -4.7663    0.7587   -0.1003 C   0  0  0  0  0  0  0  0  0  0  0  0
   -5.5532    0.4473    1.0124 C   0  0  0  0  0  0  0  0  0  0  0  0
   -3.6985   -0.9071    1.2543 C   0  0  0  0  0  0  0  0  0  0  0  0
   -5.1881    1.6984   -1.0219 C   0  0  0  0  0  0  0  0  0  0  0  0
   -6.7732    1.0504    1.2474 C   0  0  0  0  0  0  0  0  0  0  0  0
   -6.4213    2.3216   -0.8031 C   0  0  0  0  0  0  0  0  0  0  0  0
   -7.2061    2.0006    0.3206 C   0  0  0  0  0  0  0  0  0  0  0  0
    4.3002   -2.2822    1.2978 H   0  0  0  0  0  0  0  0  0  0  0  0
    4.7679   -2.0945   -1.3682 H   0  0  0  0  0  0  0  0  0  0  0  0
    6.1199   -1.9248   -0.2292 H   0  0  0  0  0  0  0  0  0  0  0  0
    3.9843    0.3885    1.9476 H   0  0  0  0  0  0  0  0  0  0  0  0
    5.5739   -0.4071    2.0454 H   0  0  0  0  0  0  0  0  0  0  0  0
    6.3282    0.1454   -1.4323 H   0  0  0  0  0  0  0  0  0  0  0  0
    4.5553    0.2943   -1.5937 H   0  0  0  0  0  0  0  0  0  0  0  0
    2.5646   -0.3167   -0.0556 H   0  0  0  0  0  0  0  0  0  0  0  0
   -2.1486   -2.5672   -1.8523 H   0  0  0  0  0  0  0  0  0  0  0  0
    0.9395    1.0333    0.0294 H   0  0  0  0  0  0  0  0  0  0  0  0
   -0.5166    0.9588    1.0188 H   0  0  0  0  0  0  0  0  0  0  0  0
    0.9076    0.0802    1.5399 H   0  0  0  0  0  0  0  0  0  0  0  0
   -2.5093    0.5058   -1.7141 H   0  0  0  0  0  0  0  0  0  0  0  0
    5.0461    4.0353   -1.7778 H   0  0  0  0  0  0  0  0  0  0  0  0
    4.3044    2.4609   -1.4691 H   0  0  0  0  0  0  0  0  0  0  0  0
    5.8085    2.5643   -2.4437 H   0  0  0  0  0  0  0  0  0  0  0  0
    7.6674    3.9907   -1.1294 H   0  0  0  0  0  0  0  0  0  0  0  0
    7.7523    3.6567    0.6169 H   0  0  0  0  0  0  0  0  0  0  0  0
    6.5677    4.8368    0.0016 H   0  0  0  0  0  0  0  0  0  0  0  0
    1.0267   -4.2184   -2.1682 H   0  0  0  0  0  0  0  0  0  0  0  0
   -0.7094   -4.4767   -2.3622 H   0  0  0  0  0  0  0  0  0  0  0  0
    0.0776   -4.9162   -0.8396 H   0  0  0  0  0  0  0  0  0  0  0  0
   -5.3271   -0.8941    2.6557 H   0  0  0  0  0  0  0  0  0  0  0  0
   -4.5924    1.9538   -1.8912 H   0  0  0  0  0  0  0  0  0  0  0  0
   -7.3765    0.8024    2.1131 H   0  0  0  0  0  0  0  0  0  0  0  0
   -8.1602    2.5001    0.4662 H   0  0  0  0  0  0  0  0  0  0  0  0
  1 31  1  0  0  0  0
  2 14  2  0  0  0  0
  3 15  2  0  0  0  0
  4 28  2  0  0  0  0
  5 12  1  0  0  0  0
  5 13  1  0  0  0  0
  5 14  1  0  0  0  0
  6 10  1  0  0  0  0
  6 15  1  0  0  0  0
  6 40  1  0  0  0  0
  7 14  1  0  0  0  0
  7 22  1  0  0  0  0
  7 23  1  0  0  0  0
  8 18  1  0  0  0  0
  8 19  1  0  0  0  0
  8 41  1  0  0  0  0
  9 27  1  0  0  0  0
  9 28  1  0  0  0  0
  9 55  1  0  0  0  0
 10 11  1  0  0  0  0
 10 12  1  0  0  0  0
 10 33  1  0  0  0  0
 11 13  1  0  0  0  0
 11 34  1  0  0  0  0
 11 35  1  0  0  0  0
 12 36  1  0  0  0  0
 12 37  1  0  0  0  0
 13 38  1  0  0  0  0
 13 39  1  0  0  0  0
 15 16  1  0  0  0  0
 16 17  1  0  0  0  0
 16 18  2  0  0  0  0
 17 19  2  0  0  0  0
 17 20  1  0  0  0  0
 18 24  1  0  0  0  0
 19 21  1  0  0  0  0
 20 42  1  0  0  0  0
 20 43  1  0  0  0  0
 20 44  1  0  0  0  0
 21 25  2  0  0  0  0
 21 45  1  0  0  0  0
 22 46  1  0  0  0  0
 22 47  1  0  0  0  0
 22 48  1  0  0  0  0
 23 49  1  0  0  0  0
 23 50  1  0  0  0  0
 23 51  1  0  0  0  0
 24 52  1  0  0  0  0
 24 53  1  0  0  0  0
 24 54  1  0  0  0  0
 25 26  1  0  0  0  0
 25 28  1  0  0  0  0
 26 27  2  0  0  0  0
 26 29  1  0  0  0  0
 27 30  1  0  0  0  0
 29 31  2  0  0  0  0
 29 56  1  0  0  0  0
 30 32  2  0  0  0  0
 30 57  1  0  0  0  0
 31 32  1  0  0  0  0
 32 58  1  0  0  0  0
M  END
> <PUBCHEM_COMPOUND_CID>
59215954

> <PUBCHEM_CONFORMER_RMSD>
1

> <PUBCHEM_CONFORMER_DIVERSEORDER>
22
15
70
17
35
39
78
48
72
65
30
18
32
53
57
36
28
49
20
37
46
64
31
1
82
63
38
71
51
10
74
59
7
43
33
76
52
79
60
12
56
54
27
68
80
19
81
25
62
5
42
67
9
23
13
77
75
11
69
66
41
58
4
6
16
44
3
21
61
8
45
40
47
2
24
26
14
29
55
73
34
50

> <PUBCHEM_MMFF94_PARTIAL_CHARGES>
38
1 -0.19
10 0.3
12 0.3
13 0.3
14 0.69
15 0.72
16 -0.09
17 -0.18
18 -0.33
19 -0.2
2 -0.57
20 0.18
21 -0.11
22 0.3
23 0.3
24 0.18
25 -0.01
26 0.03
27 0.12
28 0.62
29 -0.15
3 -0.57
30 -0.15
31 0.19
32 -0.15
4 -0.57
40 0.37
41 0.27
45 0.15
5 -0.66
55 0.37
56 0.15
57 0.15
58 0.15
6 -0.73
7 -0.66
8 0.03
9 -0.55

> <PUBCHEM_EFFECTIVE_ROTOR_COUNT>
7.2

> <PUBCHEM_PHARMACOPHORE_FEATURES>
11
1 2 acceptor
1 3 acceptor
1 4 acceptor
1 6 donor
1 8 cation
1 8 donor
1 9 donor
5 5 10 11 12 13 rings
5 8 16 17 18 19 rings
5 9 25 26 27 28 rings
6 26 27 29 30 31 32 rings

> <PUBCHEM_HEAVY_ATOM_COUNT>
32

> <PUBCHEM_ATOM_DEF_STEREO_COUNT>
1

> <PUBCHEM_ATOM_UDEF_STEREO_COUNT>
0

> <PUBCHEM_BOND_DEF_STEREO_COUNT>
1

> <PUBCHEM_BOND_UDEF_STEREO_COUNT>
0

> <PUBCHEM_ISOTOPIC_ATOM_COUNT>
0

> <PUBCHEM_COMPONENT_COUNT>
1

> <PUBCHEM_CACTVS_TAUTO_COUNT>
53

> <PUBCHEM_CONFORMER_ID>
0387905200000016

> <PUBCHEM_MMFF94_ENERGY>
91.2855

> <PUBCHEM_FEATURE_SELFOVERLAP>
55.911

> <PUBCHEM_SHAPE_FINGERPRINT>
10 15 18114184133431644545
10280341 67 17985815155369981952
10554248 39 17775002336888275246
10622 236 9511196157004601606
10673678 19 18413111636587478966
10906281 52 18130518431467256459
11410812 94 14117254832345737418
11505856 67 17981037836848888182
1200032 147 18187931724993641232
12422481 6 17967535670475754916
12975358 362 18264225650991893745
13540713 5 18127947828774407894
13911987 19 17989207036501730003
14202776 33 18056761159466732767
14211702 104 8646498414141406068
14251764 75 18340486768165312620
14565420 104 18260265244230402466
14790565 3 18130512950540464480
14840074 17 17846219934418466025
15183329 4 14333408926154962666
15338160 23 18192434288447696971
15448158 71 18116149060228432180
15840311 113 18409453561502173117
18393751 57 18335424531001205163
19309040 13 18130506457288268436
19958102 18 11815895647896616837
2026 5 9511460009768245145
20691028 202 18343301487377460120
21033648 29 18186522107113824882
21033650 10 14476965537524880203
21585483 110 18341607114252797401
23559900 14 17681576744225933583
249057 3 18201725038292701278
2748736 6 18341322353530886728
3472631 163 18272370906138562622
373842 8 18334297522212559341
397830 11 18114191851799274531
406291 66 8574444114418000864
4169191 19 18411139121850563377
4258327 124 18201715155345749175
437795 70 15338852966419495952
504843 32 18201154446949447535
5109719 28 18335714857256497801
5219985 13 18413107281649325230
5364581 5 17968667128524296289
5718773 13 9295021154498402640
59682541 52 16200160863579162372
6034566 193 18342457096722832958
6058803 2 18197188513104135558
6697151 62 17322644407048054623
6712543 237 16009020687895118249
6898599 12 17916861464622126462
7970288 3 8142084269022766568

> <PUBCHEM_SHAPE_MULTIPOLES>
608.76
21.18
4.51
1.55
2.74
0.04
0.09
-26.59
1.9
-4.99
-2.01
0.6
-0.08
0.96

> <PUBCHEM_SHAPE_SELFOVERLAP>
1321.061

> <PUBCHEM_SHAPE_VOLUME>
337.8

> <PUBCHEM_COORDINATE_TYPE>
2
5
10

$$$$
71621331
  -OEChem-11282412143D

 53 56  0     1  0  0  0  0  0999 V2000
   -3.4378   -3.8531    1.6149 O   0  0  0  0  0  0  0  0  0  0  0  0
    6.3683    1.4674    0.5134 O   0  0  0  0  0  0  0  0  0  0  0  0
    5.0344   -2.9898   -0.5567 O   0  0  0  0  0  0  0  0  0  0  0  0
   -3.9897   -2.1714    0.1246 N   0  0  0  0  0  0  0  0  0  0  0  0
   -2.9326    0.9185    0.2200 N   0  0  0  0  0  0  0  0  0  0  0  0
   -1.7783    0.2265    0.2426 N   0  0  0  0  0  0  0  0  0  0  0  0
   -3.7214    3.1961   -0.0088 N   0  0  0  0  0  0  0  0  0  0  0  0
   -1.8754    4.7659   -0.2892 N   0  0  0  0  0  0  0  0  0  0  0  0
    0.4101    4.0743   -0.3226 N   0  0  0  0  0  0  0  0  0  0  0  0
   -4.2511    0.1804    0.3756 C   0  0  1  0  0  0  0  0  0  0  0  0
   -4.8196   -0.2538   -0.9833 C   0  0  0  0  0  0  0  0  0  0  0  0
   -4.2094   -1.1481    1.1407 C   0  0  0  0  0  0  0  0  0  0  0  0
   -4.2130   -1.6328   -1.2151 C   0  0  0  0  0  0  0  0  0  0  0  0
   -2.7607    2.2603    0.0525 C   0  0  0  0  0  0  0  0  0  0  0  0
   -3.6115   -3.4561    0.4631 C   0  0  0  0  0  0  0  0  0  0  0  0
   -1.3948    2.4616   -0.0416 C   0  0  0  0  0  0  0  0  0  0  0  0
   -0.8455    1.1717    0.0827 C   0  0  0  0  0  0  0  0  0  0  0  0
   -3.4014   -4.3992   -0.6531 C   0  0  0  0  0  0  0  0  0  0  0  0
   -0.9591    3.7706   -0.2187 C   0  0  0  0  0  0  0  0  0  0  0  0
   -3.1809    4.4217   -0.1815 C   0  0  0  0  0  0  0  0  0  0  0  0
    0.5186    0.7687    0.0615 C   0  0  0  0  0  0  0  0  0  0  0  0
   -3.0352   -5.6526   -0.3773 C   0  0  0  0  0  0  0  0  0  0  0  0
    1.6706    0.4286    0.0435 C   0  0  0  0  0  0  0  0  0  0  0  0
    3.0424    0.0238    0.0223 C   0  0  0  0  0  0  0  0  0  0  0  0
    3.3738   -1.3015   -0.2595 C   0  0  0  0  0  0  0  0  0  0  0  0
    4.0486    0.9543    0.2819 C   0  0  0  0  0  0  0  0  0  0  0  0
    5.3862    0.5595    0.2598 C   0  0  0  0  0  0  0  0  0  0  0  0
    4.7114   -1.6963   -0.2815 C   0  0  0  0  0  0  0  0  0  0  0  0
    5.7177   -0.7658   -0.0218 C   0  0  0  0  0  0  0  0  0  0  0  0
    7.7142    0.9954    0.4743 C   0  0  0  0  0  0  0  0  0  0  0  0
    6.4211   -3.3251   -0.5627 C   0  0  0  0  0  0  0  0  0  0  0  0
   -4.9015    0.9014    0.8838 H   0  0  0  0  0  0  0  0  0  0  0  0
   -4.5973    0.4368   -1.8023 H   0  0  0  0  0  0  0  0  0  0  0  0
   -5.9100   -0.3464   -0.9036 H   0  0  0  0  0  0  0  0  0  0  0  0
   -3.4382   -1.1961    1.9157 H   0  0  0  0  0  0  0  0  0  0  0  0
   -5.1804   -1.3618    1.6025 H   0  0  0  0  0  0  0  0  0  0  0  0
   -4.8801   -2.2808   -1.7907 H   0  0  0  0  0  0  0  0  0  0  0  0
   -3.2445   -1.5695   -1.7223 H   0  0  0  0  0  0  0  0  0  0  0  0
   -3.5253   -4.0903   -1.6823 H   0  0  0  0  0  0  0  0  0  0  0  0
   -3.8874    5.2426   -0.2423 H   0  0  0  0  0  0  0  0  0  0  0  0
    1.1119    3.3500   -0.2717 H   0  0  0  0  0  0  0  0  0  0  0  0
    0.6875    5.0383   -0.4499 H   0  0  0  0  0  0  0  0  0  0  0  0
   -2.8707   -6.3549   -1.1886 H   0  0  0  0  0  0  0  0  0  0  0  0
   -2.8877   -6.0256    0.6300 H   0  0  0  0  0  0  0  0  0  0  0  0
    2.5959   -2.0343   -0.4636 H   0  0  0  0  0  0  0  0  0  0  0  0
    3.7996    1.9903    0.5022 H   0  0  0  0  0  0  0  0  0  0  0  0
    6.7530   -1.0716   -0.0389 H   0  0  0  0  0  0  0  0  0  0  0  0
    8.3605    1.8504    0.6990 H   0  0  0  0  0  0  0  0  0  0  0  0
    7.9910    0.6448   -0.5259 H   0  0  0  0  0  0  0  0  0  0  0  0
    7.9024    0.2451    1.2498 H   0  0  0  0  0  0  0  0  0  0  0  0
    6.4921   -4.3920   -0.7993 H   0  0  0  0  0  0  0  0  0  0  0  0
    6.8743   -3.1901    0.4254 H   0  0  0  0  0  0  0  0  0  0  0  0
    6.9632   -2.7904   -1.3503 H   0  0  0  0  0  0  0  0  0  0  0  0
  1 15  2  0  0  0  0
  2 27  1  0  0  0  0
  2 30  1  0  0  0  0
  3 28  1  0  0  0  0
  3 31  1  0  0  0  0
  4 12  1  0  0  0  0
  4 13  1  0  0  0  0
  4 15  1  0  0  0  0
  5  6  1  0  0  0  0
  5 10  1  0  0  0  0
  5 14  1  0  0  0  0
  6 17  2  0  0  0  0
  7 14  2  0  0  0  0
  7 20  1  0  0  0  0
  8 19  1  0  0  0  0
  8 20  2  0  0  0  0
  9 19  1  0  0  0  0
  9 41  1  0  0  0  0
  9 42  1  0  0  0  0
 10 11  1  0  0  0  0
 10 12  1  0  0  0  0
 10 32  1  0  0  0  0
 11 13  1  0  0  0  0
 11 33  1  0  0  0  0
 11 34  1  0  0  0  0
 12 35  1  0  0  0  0
 12 36  1  0  0  0  0
 13 37  1  0  0  0  0
 13 38  1  0  0  0  0
 14 16  1  0  0  0  0
 15 18  1  0  0  0  0
 16 17  1  0  0  0  0
 16 19  2  0  0  0  0
 17 21  1  0  0  0  0
 18 22  2  0  0  0  0
 18 39  1  0  0  0  0
 20 40  1  0  0  0  0
 21 23  3  0  0  0  0
 22 43  1  0  0  0  0
 22 44  1  0  0  0  0
 23 24  1  0  0  0  0
 24 25  2  0  0  0  0
 24 26  1  0  0  0  0
 25 28  1  0  0  0  0
 25 45  1  0  0  0  0
 26 27  2  0  0  0  0
 26 46  1  0  0  0  0
 27 29  1  0  0  0  0
 28 29  2  0  0  0  0
 29 47  1  0  0  0  0
 30 48  1  0  0  0  0
 30 49  1  0  0  0  0
 30 50  1  0  0  0  0
 31 51  1  0  0  0  0
 31 52  1  0  0  0  0
 31 53  1  0  0  0  0
M  END
> <PUBCHEM_COMPOUND_CID>
71621331

> <PUBCHEM_CONFORMER_RMSD>
0.8

> <PUBCHEM_CONFORMER_DIVERSEORDER>
1
17
9
23
4
34
27
32
15
35
10
11
16
18
31
14
26
8
33
7
13
6
29
5
28
2
19
22
25
3
36
12
24
20
30
21

> <PUBCHEM_MMFF94_PARTIAL_CHARGES>
38
1 -0.57
10 0.26
12 0.3
13 0.3
14 0.11
15 0.62
17 0.31
18 -0.14
19 0.41
2 -0.36
20 0.47
21 -0.02
22 -0.3
23 -0.07
24 0.07
25 -0.15
26 -0.15
27 0.08
28 0.08
29 -0.15
3 -0.36
30 0.28
31 0.28
39 0.15
4 -0.66
40 0.15
41 0.4
42 0.4
43 0.15
44 0.15
45 0.15
46 0.15
47 0.15
5 0.31
6 -0.71
7 -0.57
8 -0.62
9 -0.9

> <PUBCHEM_EFFECTIVE_ROTOR_COUNT>
6

> <PUBCHEM_PHARMACOPHORE_FEATURES>
13
1 1 acceptor
1 2 acceptor
1 22 hydrophobe
1 3 acceptor
1 6 acceptor
1 9 cation
1 9 donor
3 5 7 14 cation
3 7 8 20 cation
5 4 10 11 12 13 rings
5 5 6 14 16 17 rings
6 24 25 26 27 28 29 rings
6 7 8 14 16 19 20 rings

> <PUBCHEM_HEAVY_ATOM_COUNT>
31

> <PUBCHEM_ATOM_DEF_STEREO_COUNT>
1

> <PUBCHEM_ATOM_UDEF_STEREO_COUNT>
0

> <PUBCHEM_BOND_DEF_STEREO_COUNT>
0

> <PUBCHEM_BOND_UDEF_STEREO_COUNT>
0

> <PUBCHEM_ISOTOPIC_ATOM_COUNT>
0

> <PUBCHEM_COMPONENT_COUNT>
1

> <PUBCHEM_CACTVS_TAUTO_COUNT>
5

> <PUBCHEM_CONFORMER_ID>
0444DAD300000001

> <PUBCHEM_MMFF94_ENERGY>
88.0807

> <PUBCHEM_FEATURE_SELFOVERLAP>
66.251

> <PUBCHEM_SHAPE_FINGERPRINT>
10050765 1 18411136901927191742
10290309 65 17472137276219283501
10319688 140 17257371272563533623
10319688 45 18339357586486769977
10411042 1 18121499317699215243
10462674 296 17551783051394436638
11056379 131 18338804407394465380
12788726 201 18261383443223356035
14068700 686 18341611551502010146
14444916 359 17836946507284043529
14461889 52 18343010117687416106
14659021 117 18410002269597072905
14844126 61 18334861615096072017
15064986 266 18339930311902119797
15230672 131 17759528768560832206
15320467 1 18339080389235170054
15361156 5 18189071900923518970
15400415 2 18050567344211165404
15803439 3 17682081454532818773
15927050 60 17764586522327468685
17844677 252 18340211765757480276
18608769 82 18341048618892176944
19301676 85 18410284844450460695
19311894 1 18409730703163844011
19958102 18 18191016811926904615
21133410 171 17614789259185096275
21133410 52 17263839686658204462
21796203 349 17685810164165276443
22956985 138 17617937375986377737
23559900 14 18339352063180511185
255183 313 18198643046880839625
4073 2 18408887305019844210
4280585 95 18265041599934385937
5104073 3 18269835320740326656
57527452 28 16056305255190540541
613672 6 18122602093517973523
6431902 208 18267019638390822894
6673363 416 18195822971634451812
7970288 3 18267303325423163255

> <PUBCHEM_SHAPE_MULTIPOLES>
590.47
16.15
7.32
0.87
30.58
2.38
-0.07
8.97
-0.36
-9.98
0.84
-0.69
0.52
1.37

> <PUBCHEM_SHAPE_SELFOVERLAP>
1279.281

> <PUBCHEM_SHAPE_VOLUME>
322.7

> <PUBCHEM_COORDINATE_TYPE>
2
5
10

$$$$
644241
  -OEChem-11282412143D

 61 65  0     0  0  0  0  0  0999 V2000
    5.9013   -2.8453   -0.5272 F   0  0  0  0  0  0  0  0  0  0  0  0
    4.5230   -4.2964    0.3091 F   0  0  0  0  0  0  0  0  0  0  0  0
    4.3828   -3.7530   -1.7919 F   0  0  0  0  0  0  0  0  0  0  0  0
   -0.1064   -3.8749    0.7522 O   0  0  0  0  0  0  0  0  0  0  0  0
    3.6988    1.4314    0.6778 N   0  0  0  0  0  0  0  0  0  0  0  0
    0.0003   -1.6146    0.1319 N   0  0  0  0  0  0  0  0  0  0  0  0
   -4.8597   -0.3091    0.6335 N   0  0  0  0  0  0  0  0  0  0  0  0
    5.1431    3.0957    1.0122 N   0  0  0  0  0  0  0  0  0  0  0  0
   -3.2634    1.2327   -0.1284 N   0  0  0  0  0  0  0  0  0  0  0  0
   -5.4017    1.9730    0.7005 N   0  0  0  0  0  0  0  0  0  0  0  0
    0.1915    1.9437   -2.2793 N   0  0  0  0  0  0  0  0  0  0  0  0
    3.2236    0.1657    0.3874 C   0  0  0  0  0  0  0  0  0  0  0  0
    1.3935   -1.3590    0.1135 C   0  0  0  0  0  0  0  0  0  0  0  0
    3.6376   -2.1371   -0.2148 C   0  0  0  0  0  0  0  0  0  0  0  0
    1.8516   -0.0856    0.4057 C   0  0  0  0  0  0  0  0  0  0  0  0
    4.1166   -0.8601    0.0771 C   0  0  0  0  0  0  0  0  0  0  0  0
    2.2657   -2.3884   -0.1967 C   0  0  0  0  0  0  0  0  0  0  0  0
   -2.1143   -2.7737    0.3441 C   0  0  0  0  0  0  0  0  0  0  0  0
   -4.1867   -1.5356    0.4415 C   0  0  0  0  0  0  0  0  0  0  0  0
   -4.8973   -2.7036    0.1646 C   0  0  0  0  0  0  0  0  0  0  0  0
   -2.7951   -1.5706    0.5313 C   0  0  0  0  0  0  0  0  0  0  0  0
   -0.6635   -2.8109    0.4375 C   0  0  0  0  0  0  0  0  0  0  0  0
    2.9475    2.5331    0.9989 C   0  0  0  0  0  0  0  0  0  0  0  0
   -2.8250   -3.9416    0.0673 C   0  0  0  0  0  0  0  0  0  0  0  0
   -4.2165   -3.9066   -0.0225 C   0  0  0  0  0  0  0  0  0  0  0  0
    4.5919   -3.2341   -0.5468 C   0  0  0  0  0  0  0  0  0  0  0  0
    5.0131    1.8254    0.7001 C   0  0  0  0  0  0  0  0  0  0  0  0
    3.8591    3.5429    1.1997 C   0  0  0  0  0  0  0  0  0  0  0  0
   -6.3880   -2.6953    0.0626 C   0  0  0  0  0  0  0  0  0  0  0  0
   -4.4912    1.0272    0.3908 C   0  0  0  0  0  0  0  0  0  0  0  0
    3.5999    4.9433    1.5669 C   0  0  0  0  0  0  0  0  0  0  0  0
   -2.9429    2.5247   -0.3484 C   0  0  0  0  0  0  0  0  0  0  0  0
   -1.6290    2.7440   -0.9038 C   0  0  0  0  0  0  0  0  0  0  0  0
   -3.7867    3.5815   -0.0735 C   0  0  0  0  0  0  0  0  0  0  0  0
   -5.0156    3.2423    0.4550 C   0  0  0  0  0  0  0  0  0  0  0  0
   -0.9191    3.9083   -0.6301 C   0  0  0  0  0  0  0  0  0  0  0  0
   -1.0342    1.8012   -1.7272 C   0  0  0  0  0  0  0  0  0  0  0  0
    0.3449    4.0913   -1.1798 C   0  0  0  0  0  0  0  0  0  0  0  0
    0.8509    3.0880   -1.9905 C   0  0  0  0  0  0  0  0  0  0  0  0
    1.1185    0.6775    0.6445 H   0  0  0  0  0  0  0  0  0  0  0  0
    5.1894   -0.7049    0.0525 H   0  0  0  0  0  0  0  0  0  0  0  0
    1.9162   -3.3821   -0.4582 H   0  0  0  0  0  0  0  0  0  0  0  0
   -0.5519   -0.7700    0.0236 H   0  0  0  0  0  0  0  0  0  0  0  0
   -2.2615   -0.6838    0.8515 H   0  0  0  0  0  0  0  0  0  0  0  0
    1.8702    2.5430    1.0749 H   0  0  0  0  0  0  0  0  0  0  0  0
   -2.3143   -4.8886   -0.0871 H   0  0  0  0  0  0  0  0  0  0  0  0
   -4.7545   -4.8257   -0.2393 H   0  0  0  0  0  0  0  0  0  0  0  0
    5.8542    1.1805    0.4887 H   0  0  0  0  0  0  0  0  0  0  0  0
   -5.8284   -0.3924    0.9240 H   0  0  0  0  0  0  0  0  0  0  0  0
   -6.8366   -2.4674    1.0351 H   0  0  0  0  0  0  0  0  0  0  0  0
   -6.7218   -1.9580   -0.6752 H   0  0  0  0  0  0  0  0  0  0  0  0
   -6.7783   -3.6673   -0.2586 H   0  0  0  0  0  0  0  0  0  0  0  0
    2.5343    5.1222    1.7425 H   0  0  0  0  0  0  0  0  0  0  0  0
    3.9290    5.6138    0.7670 H   0  0  0  0  0  0  0  0  0  0  0  0
    4.1424    5.2060    2.4804 H   0  0  0  0  0  0  0  0  0  0  0  0
   -3.5481    4.6197   -0.2654 H   0  0  0  0  0  0  0  0  0  0  0  0
   -5.7482    4.0045    0.6984 H   0  0  0  0  0  0  0  0  0  0  0  0
   -1.3054    4.6849    0.0244 H   0  0  0  0  0  0  0  0  0  0  0  0
   -1.5265    0.8706   -1.9948 H   0  0  0  0  0  0  0  0  0  0  0  0
    0.9197    4.9871   -0.9743 H   0  0  0  0  0  0  0  0  0  0  0  0
    1.8339    3.1804   -2.4404 H   0  0  0  0  0  0  0  0  0  0  0  0
  1 26  1  0  0  0  0
  2 26  1  0  0  0  0
  3 26  1  0  0  0  0
  4 22  2  0  0  0  0
  5 12  1  0  0  0  0
  5 23  1  0  0  0  0
  5 27  1  0  0  0  0
  6 13  1  0  0  0  0
  6 22  1  0  0  0  0
  6 43  1  0  0  0  0
  7 19  1  0  0  0  0
  7 30  1  0  0  0  0
  7 49  1  0  0  0  0
  8 27  2  0  0  0  0
  8 28  1  0  0  0  0
  9 30  1  0  0  0  0
  9 32  2  0  0  0  0
 10 30  2  0  0  0  0
 10 35  1  0  0  0  0
 11 37  1  0  0  0  0
 11 39  2  0  0  0  0
 12 15  1  0  0  0  0
 12 16  2  0  0  0  0
 13 15  2  0  0  0  0
 13 17  1  0  0  0  0
 14 16  1  0  0  0  0
 14 17  2  0  0  0  0
 14 26  1  0  0  0  0
 15 40  1  0  0  0  0
 16 41  1  0  0  0  0
 17 42  1  0  0  0  0
 18 21  2  0  0  0  0
 18 22  1  0  0  0  0
 18 24  1  0  0  0  0
 19 20  2  0  0  0  0
 19 21  1  0  0  0  0
 20 25  1  0  0  0  0
 20 29  1  0  0  0  0
 21 44  1  0  0  0  0
 23 28  2  0  0  0  0
 23 45  1  0  0  0  0
 24 25  2  0  0  0  0
 24 46  1  0  0  0  0
 25 47  1  0  0  0  0
 27 48  1  0  0  0  0
 28 31  1  0  0  0  0
 29 50  1  0  0  0  0
 29 51  1  0  0  0  0
 29 52  1  0  0  0  0
 31 53  1  0  0  0  0
 31 54  1  0  0  0  0
 31 55  1  0  0  0  0
 32 33  1  0  0  0  0
 32 34  1  0  0  0  0
 33 36  1  0  0  0  0
 33 37  2  0  0  0  0
 34 35  2  0  0  0  0
 34 56  1  0  0  0  0
 35 57  1  0  0  0  0
 36 38  2  0  0  0  0
 36 58  1  0  0  0  0
 37 59  1  0  0  0  0
 38 39  1  0  0  0  0
 38 60  1  0  0  0  0
 39 61  1  0  0  0  0
M  END
> <PUBCHEM_COMPOUND_CID>
644241

> <PUBCHEM_CONFORMER_RMSD>
1.2

> <PUBCHEM_CONFORMER_DIVERSEORDER>
8
142
18
424
361
597
381
236
450
101
15
470
323
281
284
359
529
434
21
382
82
16
577
271
175
421
4
538
196
349
267
177
114
160
283
274
20
316
601
44
67
256
80
5
173
96
150
384
46
37
131
573
312
3
580
87
532
12
43
565
69
208
598
70
347
7
228
136
525
440
430
443
490
383
200
94
246
317
426
36
325
2
58
524
308
45
282
248
257
408
32
210
102
165
333
72
213
121
416
112
291
71
512
100
272
575
23
119
59
547
299
249
578
1
225
25
128
218
40
176
28
546
378
194
224
9
158
17
103
6
203
550
116
10
91
106
76
145
140
53
89
156
522
29
30
161
188
275
51
260
31
14
62
97
126
191
74
11
244
65
113

> <PUBCHEM_MMFF94_PARTIAL_CHARGES>
54
1 -0.34
10 -0.62
11 -0.62
12 -0.02
13 0.12
14 -0.14
15 -0.15
16 -0.15
17 -0.15
18 0.09
19 0.1
2 -0.34
20 -0.14
21 -0.15
22 0.54
23 -0.3
24 -0.15
25 -0.15
26 1.16
27 0.04
28 0.05
29 0.14
3 -0.34
30 0.72
31 0.18
32 0.31
34 -0.15
35 0.16
36 -0.15
37 0.16
38 -0.15
39 0.16
4 -0.57
40 0.15
41 0.15
42 0.15
43 0.37
44 0.15
45 0.15
46 0.15
47 0.15
48 0.15
49 0.4
5 0.33
56 0.15
57 0.15
58 0.15
59 0.15
6 -0.55
60 0.15
61 0.15
7 -0.6
8 -0.57
9 -0.62

> <PUBCHEM_EFFECTIVE_ROTOR_COUNT>
8

> <PUBCHEM_PHARMACOPHORE_FEATURES>
12
1 11 acceptor
1 4 acceptor
1 6 donor
1 7 donor
1 9 acceptor
3 5 8 27 cation
4 7 9 10 30 cation
5 5 8 23 27 28 rings
6 11 33 36 37 38 39 rings
6 12 13 14 15 16 17 rings
6 18 19 20 21 24 25 rings
6 9 10 30 32 34 35 rings

> <PUBCHEM_HEAVY_ATOM_COUNT>
39

> <PUBCHEM_ATOM_DEF_STEREO_COUNT>
0

> <PUBCHEM_ATOM_UDEF_STEREO_COUNT>
0

> <PUBCHEM_BOND_DEF_STEREO_COUNT>
0

> <PUBCHEM_BOND_UDEF_STEREO_COUNT>
0

> <PUBCHEM_ISOTOPIC_ATOM_COUNT>
0

> <PUBCHEM_COMPONENT_COUNT>
1

> <PUBCHEM_CACTVS_TAUTO_COUNT>
6

> <PUBCHEM_CONFORMER_ID>
0009D49100000008

> <PUBCHEM_MMFF94_ENERGY>
124.5895

> <PUBCHEM_FEATURE_SELFOVERLAP>
60.898

> <PUBCHEM_SHAPE_FINGERPRINT>
10864689 126 17904199235192378197
11513181 2 18272653492884413015
12677640 9 18269839710519195305
13561361 72 18335692828295331504
13757389 114 17330846133031678564
140371 6 18046066231084542075
14068700 686 18197218272398694754
15276724 80 18342738559590062483
15320467 1 18194682802853519801
15419008 145 18264751325129200176
15721738 15 16747307286871715053
15975801 100 17170961336609232454
16112460 7 18198635340722969569
19311894 1 17837494046694912034
21133410 38 18343587369818427859
22121540 332 18199754811754522108
25223398 141 17462006462296092060
3493558 16 18341900739512010659
373842 8 17975132351157663313
3886686 26 18340494348820240905
42626532 9 17896623784787275298
469060 322 16660910171315650757
5171179 24 18412546505112723234
552612 73 18410856564889669052
653340 110 18338231686670176337
9961470 85 18411132529207619657

> <PUBCHEM_SHAPE_MULTIPOLES>
740.04
13.28
8.15
1.3
2.42
0.06
0.54
-3.72
-3.44
-2.41
0.52
-0.98
1.15
2.72

> <PUBCHEM_SHAPE_SELFOVERLAP>
1643.23

> <PUBCHEM_SHAPE_VOLUME>
398

> <PUBCHEM_COORDINATE_TYPE>
2
5
10

$$$$
9933475
  -OEChem-11282412143D

 60 64  0     0  0  0  0  0  0999 V2000
   -4.1525    1.4786   -1.0838 F   0  0  0  0  0  0  0  0  0  0  0  0
    3.9056    1.8143   -0.7116 O   0  0  0  0  0  0  0  0  0  0  0  0
   -2.2125    0.6496    0.6748 O   0  0  0  0  0  0  0  0  0  0  0  0
    2.1799    3.1992    0.9715 O   0  0  0  0  0  0  0  0  0  0  0  0
    6.9397   -1.0569   -0.0968 N   0  0  0  0  0  0  0  0  0  0  0  0
   -7.3141   -1.3573    0.7270 N   0  0  0  0  0  0  0  0  0  0  0  0
    0.4444   -1.2820   -1.7654 N   0  0  0  0  0  0  0  0  0  0  0  0
   -1.7476   -1.0620   -0.7891 N   0  0  0  0  0  0  0  0  0  0  0  0
    7.9294   -2.1040   -0.3486 C   0  0  0  0  0  0  0  0  0  0  0  0
    6.8528   -0.9591    1.3599 C   0  0  0  0  0  0  0  0  0  0  0  0
    7.5700   -3.1675    0.6785 C   0  0  0  0  0  0  0  0  0  0  0  0
    6.8593   -2.4156    1.7996 C   0  0  0  0  0  0  0  0  0  0  0  0
    7.2998    0.2090   -0.7180 C   0  0  0  0  0  0  0  0  0  0  0  0
    6.2201    1.2538   -0.4551 C   0  0  0  0  0  0  0  0  0  0  0  0
    4.8689    0.8101   -0.9991 C   0  0  0  0  0  0  0  0  0  0  0  0
    2.6102    1.3988   -0.5439 C   0  0  0  0  0  0  0  0  0  0  0  0
    1.7562    2.0951    0.2971 C   0  0  0  0  0  0  0  0  0  0  0  0
    2.1673    0.2699   -1.2316 C   0  0  0  0  0  0  0  0  0  0  0  0
   -0.0009    0.5174   -0.2436 C   0  0  0  0  0  0  0  0  0  0  0  0
    0.8602   -0.1920   -1.0967 C   0  0  0  0  0  0  0  0  0  0  0  0
   -5.7359   -0.0130   -0.0970 C   0  0  0  0  0  0  0  0  0  0  0  0
   -5.9974   -0.9828    0.8734 C   0  0  0  0  0  0  0  0  0  0  0  0
    0.4448    1.6559    0.4504 C   0  0  0  0  0  0  0  0  0  0  0  0
   -7.8923   -0.6599   -0.2994 C   0  0  0  0  0  0  0  0  0  0  0  0
   -6.9404    0.1804   -0.8295 C   0  0  0  0  0  0  0  0  0  0  0  0
   -1.2988    0.0257   -0.1348 C   0  0  0  0  0  0  0  0  0  0  0  0
   -4.4440    0.5454   -0.1668 C   0  0  0  0  0  0  0  0  0  0  0  0
   -3.4802    0.1072    0.7352 C   0  0  0  0  0  0  0  0  0  0  0  0
   -5.0277   -1.4236    1.7810 C   0  0  0  0  0  0  0  0  0  0  0  0
   -3.7537   -0.8555    1.6926 C   0  0  0  0  0  0  0  0  0  0  0  0
   -9.3039   -0.8709   -0.6691 C   0  0  0  0  0  0  0  0  0  0  0  0
   -0.8365   -1.6580   -1.5750 C   0  0  0  0  0  0  0  0  0  0  0  0
    1.2296    3.8498    1.8136 C   0  0  0  0  0  0  0  0  0  0  0  0
    8.9524   -1.7481   -0.1705 H   0  0  0  0  0  0  0  0  0  0  0  0
    7.8683   -2.4931   -1.3698 H   0  0  0  0  0  0  0  0  0  0  0  0
    5.9401   -0.4640    1.7055 H   0  0  0  0  0  0  0  0  0  0  0  0
    7.7199   -0.4398    1.7880 H   0  0  0  0  0  0  0  0  0  0  0  0
    8.4599   -3.6912    1.0421 H   0  0  0  0  0  0  0  0  0  0  0  0
    6.8936   -3.9141    0.2460 H   0  0  0  0  0  0  0  0  0  0  0  0
    5.8363   -2.7946    1.9089 H   0  0  0  0  0  0  0  0  0  0  0  0
    7.3691   -2.5431    2.7600 H   0  0  0  0  0  0  0  0  0  0  0  0
    8.2635    0.5816   -0.3481 H   0  0  0  0  0  0  0  0  0  0  0  0
    7.4034    0.0711   -1.8016 H   0  0  0  0  0  0  0  0  0  0  0  0
    6.5062    2.1933   -0.9457 H   0  0  0  0  0  0  0  0  0  0  0  0
    6.1391    1.5082    0.6083 H   0  0  0  0  0  0  0  0  0  0  0  0
    4.9304    0.6726   -2.0851 H   0  0  0  0  0  0  0  0  0  0  0  0
    4.5919   -0.1394   -0.5263 H   0  0  0  0  0  0  0  0  0  0  0  0
    2.8156   -0.2669   -1.9204 H   0  0  0  0  0  0  0  0  0  0  0  0
   -0.2694    2.1589    1.0935 H   0  0  0  0  0  0  0  0  0  0  0  0
   -7.0914    0.8622   -1.6556 H   0  0  0  0  0  0  0  0  0  0  0  0
   -7.7829   -2.0480    1.2971 H   0  0  0  0  0  0  0  0  0  0  0  0
   -5.2522   -2.1781    2.5274 H   0  0  0  0  0  0  0  0  0  0  0  0
   -2.9809   -1.1778    2.3860 H   0  0  0  0  0  0  0  0  0  0  0  0
   -9.5930   -0.2295   -1.5079 H   0  0  0  0  0  0  0  0  0  0  0  0
   -9.4752   -1.9106   -0.9664 H   0  0  0  0  0  0  0  0  0  0  0  0
   -9.9637   -0.6399    0.1735 H   0  0  0  0  0  0  0  0  0  0  0  0
   -1.1653   -2.5368   -2.1162 H   0  0  0  0  0  0  0  0  0  0  0  0
    0.9043    3.1996    2.6330 H   0  0  0  0  0  0  0  0  0  0  0  0
    1.7376    4.7054    2.2706 H   0  0  0  0  0  0  0  0  0  0  0  0
    0.3881    4.2508    1.2384 H   0  0  0  0  0  0  0  0  0  0  0  0
  1 27  1  0  0  0  0
  2 15  1  0  0  0  0
  2 16  1  0  0  0  0
  3 26  1  0  0  0  0
  3 28  1  0  0  0  0
  4 17  1  0  0  0  0
  4 33  1  0  0  0  0
  5  9  1  0  0  0  0
  5 10  1  0  0  0  0
  5 13  1  0  0  0  0
  6 22  1  0  0  0  0
  6 24  1  0  0  0  0
  6 51  1  0  0  0  0
  7 20  1  0  0  0  0
  7 32  2  0  0  0  0
  8 26  2  0  0  0  0
  8 32  1  0  0  0  0
  9 11  1  0  0  0  0
  9 34  1  0  0  0  0
  9 35  1  0  0  0  0
 10 12  1  0  0  0  0
 10 36  1  0  0  0  0
 10 37  1  0  0  0  0
 11 12  1  0  0  0  0
 11 38  1  0  0  0  0
 11 39  1  0  0  0  0
 12 40  1  0  0  0  0
 12 41  1  0  0  0  0
 13 14  1  0  0  0  0
 13 42  1  0  0  0  0
 13 43  1  0  0  0  0
 14 15  1  0  0  0  0
 14 44  1  0  0  0  0
 14 45  1  0  0  0  0
 15 46  1  0  0  0  0
 15 47  1  0  0  0  0
 16 17  2  0  0  0  0
 16 18  1  0  0  0  0
 17 23  1  0  0  0  0
 18 20  2  0  0  0  0
 18 48  1  0  0  0  0
 19 20  1  0  0  0  0
 19 23  2  0  0  0  0
 19 26  1  0  0  0  0
 21 22  2  0  0  0  0
 21 25  1  0  0  0  0
 21 27  1  0  0  0  0
 22 29  1  0  0  0  0
 23 49  1  0  0  0  0
 24 25  2  0  0  0  0
 24 31  1  0  0  0  0
 25 50  1  0  0  0  0
 27 28  2  0  0  0  0
 28 30  1  0  0  0  0
 29 30  2  0  0  0  0
 29 52  1  0  0  0  0
 30 53  1  0  0  0  0
 31 54  1  0  0  0  0
 31 55  1  0  0  0  0
 31 56  1  0  0  0  0
 32 57  1  0  0  0  0
 33 58  1  0  0  0  0
 33 59  1  0  0  0  0
 33 60  1  0  0  0  0
M  END
> <PUBCHEM_COMPOUND_CID>
9933475

> <PUBCHEM_CONFORMER_RMSD>
1

> <PUBCHEM_CONFORMER_DIVERSEORDER>
14
76
243
149
184
189
128
47
42
225
94
4
206
131
61
78
238
153
87
12
268
180
147
244
100
104
275
138
48
43
155
203
140
135
59
191
211
255
79
117
253
236
175
234
141
276
95
25
250
248
245
35
99
10
105
33
123
125
270
241
44
58
181
251
112
118
62
210
197
262
216
16
134
247
158
192
65
199
23
145
273
108
70
71
198
249
97
182
98
194
17
221
109
19
56
222
242
226
132
60
233
265
45
195
217
258
84
36
21
92
86
228
162
101
1
160
96
69
142
227
90
215
230
66
129
187
91
232
82
53
64
148
190
235
214
41
256
113
121
77
57
263
34
186
207
80
114
30
137
106
205
231
136
267
143
18
166
240
188
110
266
37
88
83
51
144
72
274
252
171
85
26
15
277
272
269
146
151
201
156
120
176
46
102
127
237
167
209
111
259
52
139
219
5
115
154
163
164
55
116
126
229
218
193
9
159
178
173
152
208
204
260
177
68
3
220
239
63
7
224
29
133
202
39
271
74
32
213
183
261
40
168
73
122
172
38
223
174
254
11
20
170
200
6
13
28
2
119
150
161
27
264
169
185
130
31
103
75
22
257
124
212
67
179
157
50
196
107
246
8
54
24
89
49
93
81
165

> <PUBCHEM_MMFF94_PARTIAL_CHARGES>
35
1 -0.19
10 0.27
13 0.27
15 0.28
16 0.08
17 0.08
18 -0.15
2 -0.36
20 0.31
22 -0.15
23 -0.15
24 -0.33
25 -0.15
26 0.39
27 0.19
28 0.08
29 -0.15
3 -0.17
30 -0.15
31 0.18
32 0.47
33 0.28
4 -0.36
48 0.15
49 0.15
5 -0.81
50 0.15
51 0.27
52 0.15
53 0.15
57 0.15
6 0.03
7 -0.62
8 -0.62
9 0.27

> <PUBCHEM_EFFECTIVE_ROTOR_COUNT>
9

> <PUBCHEM_PHARMACOPHORE_FEATURES>
11
1 2 acceptor
1 4 acceptor
1 5 cation
1 6 cation
1 6 donor
3 7 8 32 cation
5 5 9 10 11 12 rings
5 6 21 22 24 25 rings
6 16 17 18 19 20 23 rings
6 21 22 27 28 29 30 rings
6 7 8 19 20 26 32 rings

> <PUBCHEM_HEAVY_ATOM_COUNT>
33

> <PUBCHEM_ATOM_DEF_STEREO_COUNT>
0

> <PUBCHEM_ATOM_UDEF_STEREO_COUNT>
0

> <PUBCHEM_BOND_DEF_STEREO_COUNT>
0

> <PUBCHEM_BOND_UDEF_STEREO_COUNT>
0

> <PUBCHEM_ISOTOPIC_ATOM_COUNT>
0

> <PUBCHEM_COMPONENT_COUNT>
1

> <PUBCHEM_CACTVS_TAUTO_COUNT>
1

> <PUBCHEM_CONFORMER_ID>
009792A30000000E

> <PUBCHEM_MMFF94_ENERGY>
96.2299

> <PUBCHEM_FEATURE_SELFOVERLAP>
55.951

> <PUBCHEM_SHAPE_FINGERPRINT>
10319688 67 16845566522235391030
10674148 151 16081367488383950360
11409948 35 17749943371754168987
11456790 92 18270976691219492569
117089 54 18050292462985557626
11719270 70 18413393129161283950
12592606 108 18334295336585265198
13383668 1 18260824926241543575
13540713 5 17486762254458809540
13560911 43 18202286922471754105
13782708 43 18261678163472979455
15131766 46 17683814584937043148
15301273 46 16877941650372490670
15352257 5 17313105250618650010
15361156 5 9367341519046238921
16728300 4 18266170631326288894
16994733 274 12895078400739289874
19301679 30 18200316490682518542
19841028 212 18113334181791661418
23559900 14 17894915191436636553
3178227 256 18201730586493330121
335352 9 17988934421942948220
3383291 50 18272091582577184534
3418910 222 11167947995636305363
4112364 45 12823003258113123482
439807 62 16443060574768647850
474113 269 18412543180459896006
6081469 158 17821444664853595181
9831232 110 17095248029744839714

> <PUBCHEM_SHAPE_MULTIPOLES>
634.32
26.38
2.91
1.58
3.08
1.32
-0.35
-18.65
-1.65
-5.79
-1.49
-0.28
-0.21
-0.7

> <PUBCHEM_SHAPE_SELFOVERLAP>
1395.421

> <PUBCHEM_SHAPE_VOLUME>
347.7

> <PUBCHEM_COORDINATE_TYPE>
2
5
10

$$$$
22024915
  -OEChem-11282412143D

 50 53  0     0  0  0  0  0  0999 V2000
   -2.5846    1.1382    1.0156 O   0  0  0  0  0  0  0  0  0  0  0  0
   -3.6524   -1.2681    0.9768 O   0  0  0  0  0  0  0  0  0  0  0  0
   -4.5942    2.3864   -0.6603 O   0  0  0  0  0  0  0  0  0  0  0  0
   -5.9161   -0.1568   -0.4411 O   0  0  0  0  0  0  0  0  0  0  0  0
    2.2432    0.5430   -0.6776 N   0  0  0  0  0  0  0  0  0  0  0  0
    0.4262   -3.1745   -0.7069 N   0  0  0  0  0  0  0  0  0  0  0  0
    2.3430   -1.7686   -1.0988 N   0  0  0  0  0  0  0  0  0  0  0  0
    0.2800   -0.8211   -0.2671 C   0  0  0  0  0  0  0  0  0  0  0  0
   -1.7901    0.1232    0.5613 C   0  0  0  0  0  0  0  0  0  0  0  0
   -2.3590   -1.1521    0.5359 C   0  0  0  0  0  0  0  0  0  0  0  0
   -0.2832   -2.1080   -0.2982 C   0  0  0  0  0  0  0  0  0  0  0  0
   -0.4651    0.2900    0.1669 C   0  0  0  0  0  0  0  0  0  0  0  0
   -1.6046   -2.2536    0.1156 C   0  0  0  0  0  0  0  0  0  0  0  0
    1.6052   -0.7225   -0.6817 C   0  0  0  0  0  0  0  0  0  0  0  0
   -2.4325    2.3986    0.3531 C   0  0  0  0  0  0  0  0  0  0  0  0
   -4.5012   -2.0187    0.1011 C   0  0  0  0  0  0  0  0  0  0  0  0
   -3.8108    3.0479    0.3373 C   0  0  0  0  0  0  0  0  0  0  0  0
   -5.9061   -1.4340    0.2007 C   0  0  0  0  0  0  0  0  0  0  0  0
   -5.9680    2.2304   -0.3046 C   0  0  0  0  0  0  0  0  0  0  0  0
   -6.1585    0.9257    0.4601 C   0  0  0  0  0  0  0  0  0  0  0  0
    3.5809    0.9286   -0.4974 C   0  0  0  0  0  0  0  0  0  0  0  0
    1.7001   -2.9471   -1.0859 C   0  0  0  0  0  0  0  0  0  0  0  0
    4.4257    0.1632    0.3066 C   0  0  0  0  0  0  0  0  0  0  0  0
    4.0654    2.0775   -1.1227 C   0  0  0  0  0  0  0  0  0  0  0  0
    5.7547    0.5469    0.4853 C   0  0  0  0  0  0  0  0  0  0  0  0
    5.3944    2.4612   -0.9440 C   0  0  0  0  0  0  0  0  0  0  0  0
    6.2391    1.6959   -0.1400 C   0  0  0  0  0  0  0  0  0  0  0  0
    6.6204   -0.2366    1.3089 C   0  0  0  0  0  0  0  0  0  0  0  0
    7.3480   -0.8950    2.0011 C   0  0  0  0  0  0  0  0  0  0  0  0
   -0.0200    1.2791    0.2235 H   0  0  0  0  0  0  0  0  0  0  0  0
   -2.0500   -3.2467    0.1196 H   0  0  0  0  0  0  0  0  0  0  0  0
   -2.0720    2.2786   -0.6761 H   0  0  0  0  0  0  0  0  0  0  0  0
   -1.7314    3.0097    0.9305 H   0  0  0  0  0  0  0  0  0  0  0  0
   -4.5074   -3.0629    0.4311 H   0  0  0  0  0  0  0  0  0  0  0  0
   -4.1575   -1.9586   -0.9396 H   0  0  0  0  0  0  0  0  0  0  0  0
   -4.2773    2.9729    1.3264 H   0  0  0  0  0  0  0  0  0  0  0  0
   -3.7341    4.1020    0.0541 H   0  0  0  0  0  0  0  0  0  0  0  0
   -6.6074   -2.0747   -0.3430 H   0  0  0  0  0  0  0  0  0  0  0  0
   -6.2357   -1.3632    1.2439 H   0  0  0  0  0  0  0  0  0  0  0  0
   -6.5330    2.1935   -1.2419 H   0  0  0  0  0  0  0  0  0  0  0  0
   -6.3190    3.0937    0.2716 H   0  0  0  0  0  0  0  0  0  0  0  0
   -5.4628    0.8641    1.3032 H   0  0  0  0  0  0  0  0  0  0  0  0
   -7.1875    0.8536    0.8276 H   0  0  0  0  0  0  0  0  0  0  0  0
    1.6642    1.2773   -1.0759 H   0  0  0  0  0  0  0  0  0  0  0  0
    2.2655   -3.8106   -1.4145 H   0  0  0  0  0  0  0  0  0  0  0  0
    4.0534   -0.7267    0.8099 H   0  0  0  0  0  0  0  0  0  0  0  0
    3.4185    2.6827   -1.7526 H   0  0  0  0  0  0  0  0  0  0  0  0
    5.7716    3.3557   -1.4311 H   0  0  0  0  0  0  0  0  0  0  0  0
    7.2727    2.0081   -0.0106 H   0  0  0  0  0  0  0  0  0  0  0  0
    7.9933   -1.4790    2.6149 H   0  0  0  0  0  0  0  0  0  0  0  0
  1  9  1  0  0  0  0
  1 15  1  0  0  0  0
  2 10  1  0  0  0  0
  2 16  1  0  0  0  0
  3 17  1  0  0  0  0
  3 19  1  0  0  0  0
  4 18  1  0  0  0  0
  4 20  1  0  0  0  0
  5 14  1  0  0  0  0
  5 21  1  0  0  0  0
  5 44  1  0  0  0  0
  6 11  1  0  0  0  0
  6 22  2  0  0  0  0
  7 14  2  0  0  0  0
  7 22  1  0  0  0  0
  8 11  1  0  0  0  0
  8 12  2  0  0  0  0
  8 14  1  0  0  0  0
  9 10  2  0  0  0  0
  9 12  1  0  0  0  0
 10 13  1  0  0  0  0
 11 13  2  0  0  0  0
 12 30  1  0  0  0  0
 13 31  1  0  0  0  0
 15 17  1  0  0  0  0
 15 32  1  0  0  0  0
 15 33  1  0  0  0  0
 16 18  1  0  0  0  0
 16 34  1  0  0  0  0
 16 35  1  0  0  0  0
 17 36  1  0  0  0  0
 17 37  1  0  0  0  0
 18 38  1  0  0  0  0
 18 39  1  0  0  0  0
 19 20  1  0  0  0  0
 19 40  1  0  0  0  0
 19 41  1  0  0  0  0
 20 42  1  0  0  0  0
 20 43  1  0  0  0  0
 21 23  1  0  0  0  0
 21 24  2  0  0  0  0
 22 45  1  0  0  0  0
 23 25  2  0  0  0  0
 23 46  1  0  0  0  0
 24 26  1  0  0  0  0
 24 47  1  0  0  0  0
 25 27  1  0  0  0  0
 25 28  1  0  0  0  0
 26 27  2  0  0  0  0
 26 48  1  0  0  0  0
 27 49  1  0  0  0  0
 28 29  3  0  0  0  0
 29 50  1  0  0  0  0
M  END
> <PUBCHEM_COMPOUND_CID>
22024915

> <PUBCHEM_CONFORMER_RMSD>
0.8

> <PUBCHEM_CONFORMER_DIVERSEORDER>
1
24
65
23
76
86
36
18
82
35
59
75
53
42
19
84
10
11
78
58
48
21
68
57
92
67
52
27
61
77
88
91
72
8
31
44
43
64
83
3
6
17
40
80
2
14
62
7
81
20
66
70
73
71
30
26
89
87
37
16
49
85
32
9
5
45
54
29
4
46
55
41
12
13
15
25
38
50
79
47
63
60
90
22
93
33
28
34
56
51
39
74
69

> <PUBCHEM_MMFF94_PARTIAL_CHARGES>
37
1 -0.36
10 0.08
11 0.31
12 -0.15
13 -0.15
14 0.41
15 0.28
16 0.28
17 0.28
18 0.28
19 0.28
2 -0.36
20 0.28
21 0.1
22 0.47
23 -0.15
24 -0.15
25 0.07
26 -0.15
27 -0.15
28 -0.07
29 -0.18
3 -0.56
30 0.15
31 0.15
4 -0.56
44 0.4
45 0.15
46 0.15
47 0.15
48 0.15
49 0.15
5 -0.6
50 0.18
6 -0.62
7 -0.62
9 0.08

> <PUBCHEM_EFFECTIVE_ROTOR_COUNT>
4

> <PUBCHEM_PHARMACOPHORE_FEATURES>
11
1 1 acceptor
1 2 acceptor
1 29 hydrophobe
1 3 acceptor
1 4 acceptor
1 5 donor
3 5 7 14 cation
3 6 7 22 cation
6 21 23 24 25 26 27 rings
6 6 7 8 11 14 22 rings
6 8 9 10 11 12 13 rings

> <PUBCHEM_HEAVY_ATOM_COUNT>
29

> <PUBCHEM_ATOM_DEF_STEREO_COUNT>
0

> <PUBCHEM_ATOM_UDEF_STEREO_COUNT>
0

> <PUBCHEM_BOND_DEF_STEREO_COUNT>
0

> <PUBCHEM_BOND_UDEF_STEREO_COUNT>
0

> <PUBCHEM_ISOTOPIC_ATOM_COUNT>
0

> <PUBCHEM_COMPONENT_COUNT>
1

> <PUBCHEM_CACTVS_TAUTO_COUNT>
3

> <PUBCHEM_CONFORMER_ID>
015012D300000001

> <PUBCHEM_MMFF94_ENERGY>
113.3756

> <PUBCHEM_FEATURE_SELFOVERLAP>
56.009

> <PUBCHEM_SHAPE_FINGERPRINT>
11135609 149 16199048089166684372
11719270 70 18343302565730898958
12107183 9 18261948545556688152
12236239 1 18114460166932834386
12403259 118 18409446986376676048
12422481 6 17821728329857821876
12596602 18 17676768798624653786
13167372 99 18334011713897923212
13914758 101 18040148509206038816
14294032 229 18131073787264786351
14347424 109 18187075188202889544
15064986 96 17986945264429130782
15461852 350 17632569492456586540
17980427 23 17968103057378442837
20554085 129 17845356800589570490
21033648 29 18058995286117287640
21065198 48 18187085092202418424
21236236 1 18410013256308369957
21403212 168 18262225609264381994
21792964 463 17389395019308963692
21859007 373 17460307755132735293
22122407 14 17605289569099333108
23559900 14 18126289627547047135
2838139 119 18411975896963282621
350125 39 18340490066104571240
437815 12 11963394029008692447
5085150 59 18342451552019715378
5104073 3 18264500498722413995
513202 73 16515951568185906196
6299153 45 18187642466760567848
6371009 1 18341612650439255016
9981440 41 18335427871900446427

> <PUBCHEM_SHAPE_MULTIPOLES>
558.39
18.15
3.52
1.15
8.33
0.09
0.22
7.85
4.9
-2.25
-0.87
1.72
-0.18
-0.95

> <PUBCHEM_SHAPE_SELFOVERLAP>
1206.378

> <PUBCHEM_SHAPE_VOLUME>
301.4

> <PUBCHEM_COORDINATE_TYPE>
2
5
10

$$$$
24821094
  -OEChem-11282412143D

 57 61  0     1  0  0  0  0  0999 V2000
   -7.6602   -1.7062   -0.1885 O   0  0  0  0  0  0  0  0  0  0  0  0
    4.9849   -1.8094   -1.0137 O   0  0  0  0  0  0  0  0  0  0  0  0
   -5.3735   -1.4666    0.1578 N   0  0  0  0  0  0  0  0  0  0  0  0
   -2.0934    0.4595    0.5165 N   0  0  0  0  0  0  0  0  0  0  0  0
   -1.0736   -0.3986    0.3286 N   0  0  0  0  0  0  0  0  0  0  0  0
   -2.5423    2.8385    0.4755 N   0  0  0  0  0  0  0  0  0  0  0  0
   -0.5439    4.1240   -0.0762 N   0  0  0  0  0  0  0  0  0  0  0  0
    1.5679    3.1012   -0.5133 N   0  0  0  0  0  0  0  0  0  0  0  0
   -3.4659   -0.0771    0.8739 C   0  0  2  0  0  0  0  0  0  0  0  0
   -3.4571   -0.8194    2.2254 C   0  0  0  0  0  0  0  0  0  0  0  0
   -4.0398   -0.9823   -0.2298 C   0  0  0  0  0  0  0  0  0  0  0  0
   -4.8433   -1.3788    2.5555 C   0  0  0  0  0  0  0  0  0  0  0  0
   -5.3893   -2.2275    1.4092 C   0  0  0  0  0  0  0  0  0  0  0  0
   -1.7430    1.7668    0.3530 C   0  0  0  0  0  0  0  0  0  0  0  0
   -0.3962    1.7643    0.0349 C   0  0  0  0  0  0  0  0  0  0  0  0
   -6.5610   -1.2760   -0.5422 C   0  0  0  0  0  0  0  0  0  0  0  0
   -0.0430    0.4021    0.0356 C   0  0  0  0  0  0  0  0  0  0  0  0
    0.2043    2.9998   -0.1835 C   0  0  0  0  0  0  0  0  0  0  0  0
    1.2526   -0.1683   -0.2351 C   0  0  0  0  0  0  0  0  0  0  0  0
   -6.5034   -0.4966   -1.7947 C   0  0  0  0  0  0  0  0  0  0  0  0
   -1.8520    3.9756    0.2422 C   0  0  0  0  0  0  0  0  0  0  0  0
    2.1563   -0.3716    0.8078 C   0  0  0  0  0  0  0  0  0  0  0  0
    1.6027   -0.5174   -1.5394 C   0  0  0  0  0  0  0  0  0  0  0  0
   -7.3764   -0.7719   -2.7661 C   0  0  0  0  0  0  0  0  0  0  0  0
    3.4101   -0.9240    0.5465 C   0  0  0  0  0  0  0  0  0  0  0  0
    2.8567   -1.0699   -1.8008 C   0  0  0  0  0  0  0  0  0  0  0  0
    3.7603   -1.2731   -0.7578 C   0  0  0  0  0  0  0  0  0  0  0  0
    6.0850   -1.2150   -0.4189 C   0  0  0  0  0  0  0  0  0  0  0  0
    6.2131    0.1741   -0.4199 C   0  0  0  0  0  0  0  0  0  0  0  0
    7.0655   -2.0053    0.1810 C   0  0  0  0  0  0  0  0  0  0  0  0
    7.3217    0.7728    0.1786 C   0  0  0  0  0  0  0  0  0  0  0  0
    8.1741   -1.4065    0.7796 C   0  0  0  0  0  0  0  0  0  0  0  0
    8.3022   -0.0175    0.7784 C   0  0  0  0  0  0  0  0  0  0  0  0
   -4.1027    0.8121    0.9688 H   0  0  0  0  0  0  0  0  0  0  0  0
   -3.1311   -0.1420    3.0236 H   0  0  0  0  0  0  0  0  0  0  0  0
   -2.7335   -1.6441    2.1990 H   0  0  0  0  0  0  0  0  0  0  0  0
   -4.0479   -0.4547   -1.1847 H   0  0  0  0  0  0  0  0  0  0  0  0
   -3.4071   -1.8673   -0.3754 H   0  0  0  0  0  0  0  0  0  0  0  0
   -4.7941   -1.9769    3.4720 H   0  0  0  0  0  0  0  0  0  0  0  0
   -5.5283   -0.5438    2.7484 H   0  0  0  0  0  0  0  0  0  0  0  0
   -6.4019   -2.5654    1.6506 H   0  0  0  0  0  0  0  0  0  0  0  0
   -4.7711   -3.1210    1.2619 H   0  0  0  0  0  0  0  0  0  0  0  0
   -5.8002    0.3170   -1.9105 H   0  0  0  0  0  0  0  0  0  0  0  0
   -2.4216    4.8955    0.3198 H   0  0  0  0  0  0  0  0  0  0  0  0
    1.8968   -0.1088    1.8306 H   0  0  0  0  0  0  0  0  0  0  0  0
    0.9100   -0.3645   -2.3637 H   0  0  0  0  0  0  0  0  0  0  0  0
    1.9647    4.0190   -0.6637 H   0  0  0  0  0  0  0  0  0  0  0  0
    2.1505    2.2815   -0.5998 H   0  0  0  0  0  0  0  0  0  0  0  0
   -8.1097   -1.5674   -2.6907 H   0  0  0  0  0  0  0  0  0  0  0  0
   -7.3647   -0.1929   -3.6838 H   0  0  0  0  0  0  0  0  0  0  0  0
    4.0851   -1.0919    1.3816 H   0  0  0  0  0  0  0  0  0  0  0  0
    3.1245   -1.3388   -2.8190 H   0  0  0  0  0  0  0  0  0  0  0  0
    5.4756    0.8126   -0.8991 H   0  0  0  0  0  0  0  0  0  0  0  0
    6.9707   -3.0876    0.1850 H   0  0  0  0  0  0  0  0  0  0  0  0
    7.4241    1.8540    0.1735 H   0  0  0  0  0  0  0  0  0  0  0  0
    8.9377   -2.0218    1.2464 H   0  0  0  0  0  0  0  0  0  0  0  0
    9.1659    0.4486    1.2433 H   0  0  0  0  0  0  0  0  0  0  0  0
  1 16  2  0  0  0  0
  2 27  1  0  0  0  0
  2 28  1  0  0  0  0
  3 11  1  0  0  0  0
  3 13  1  0  0  0  0
  3 16  1  0  0  0  0
  4  5  1  0  0  0  0
  4  9  1  0  0  0  0
  4 14  1  0  0  0  0
  5 17  2  0  0  0  0
  6 14  2  0  0  0  0
  6 21  1  0  0  0  0
  7 18  1  0  0  0  0
  7 21  2  0  0  0  0
  8 18  1  0  0  0  0
  8 47  1  0  0  0  0
  8 48  1  0  0  0  0
  9 10  1  0  0  0  0
  9 11  1  0  0  0  0
  9 34  1  0  0  0  0
 10 12  1  0  0  0  0
 10 35  1  0  0  0  0
 10 36  1  0  0  0  0
 11 37  1  0  0  0  0
 11 38  1  0  0  0  0
 12 13  1  0  0  0  0
 12 39  1  0  0  0  0
 12 40  1  0  0  0  0
 13 41  1  0  0  0  0
 13 42  1  0  0  0  0
 14 15  1  0  0  0  0
 15 17  1  0  0  0  0
 15 18  2  0  0  0  0
 16 20  1  0  0  0  0
 17 19  1  0  0  0  0
 19 22  2  0  0  0  0
 19 23  1  0  0  0  0
 20 24  2  0  0  0  0
 20 43  1  0  0  0  0
 21 44  1  0  0  0  0
 22 25  1  0  0  0  0
 22 45  1  0  0  0  0
 23 26  2  0  0  0  0
 23 46  1  0  0  0  0
 24 49  1  0  0  0  0
 24 50  1  0  0  0  0
 25 27  2  0  0  0  0
 25 51  1  0  0  0  0
 26 27  1  0  0  0  0
 26 52  1  0  0  0  0
 28 29  2  0  0  0  0
 28 30  1  0  0  0  0
 29 31  1  0  0  0  0
 29 53  1  0  0  0  0
 30 32  2  0  0  0  0
 30 54  1  0  0  0  0
 31 33  2  0  0  0  0
 31 55  1  0  0  0  0
 32 33  1  0  0  0  0
 32 56  1  0  0  0  0
 33 57  1  0  0  0  0
M  END
> <PUBCHEM_COMPOUND_CID>
24821094

> <PUBCHEM_CONFORMER_RMSD>
1

> <PUBCHEM_CONFORMER_DIVERSEORDER>
1
53
29
33
10
43
56
26
69
8
42
55
37
41
47
17
64
45
12
27
58
65
44
70
32
34
19
72
50
35
7
9
28
60
30
13
46
15
31
57
11
39
51
54
2
24
68
63
5
49
25
36
71
67
4
59
18
20
40
61
66
52
48
21
16
22
62
23
6
3
14
38

> <PUBCHEM_MMFF94_PARTIAL_CHARGES>
45
1 -0.57
11 0.3
13 0.3
14 0.11
16 0.62
17 0.23
18 0.41
19 0.05
2 -0.17
20 -0.14
21 0.47
22 -0.15
23 -0.15
24 -0.3
25 -0.15
26 -0.15
27 0.08
28 0.08
29 -0.15
3 -0.66
30 -0.15
31 -0.15
32 -0.15
33 -0.15
4 0.31
43 0.15
44 0.15
45 0.15
46 0.15
47 0.4
48 0.4
49 0.15
5 -0.71
50 0.15
51 0.15
52 0.15
53 0.15
54 0.15
55 0.15
56 0.15
57 0.15
6 -0.57
7 -0.62
8 -0.9
9 0.26

> <PUBCHEM_EFFECTIVE_ROTOR_COUNT>
7.2

> <PUBCHEM_PHARMACOPHORE_FEATURES>
13
1 1 acceptor
1 2 acceptor
1 24 hydrophobe
1 5 acceptor
1 8 cation
1 8 donor
3 4 6 14 cation
3 6 7 21 cation
5 4 5 14 15 17 rings
6 19 22 23 25 26 27 rings
6 28 29 30 31 32 33 rings
6 3 9 10 11 12 13 rings
6 6 7 14 15 18 21 rings

> <PUBCHEM_HEAVY_ATOM_COUNT>
33

> <PUBCHEM_ATOM_DEF_STEREO_COUNT>
1

> <PUBCHEM_ATOM_UDEF_STEREO_COUNT>
0

> <PUBCHEM_BOND_DEF_STEREO_COUNT>
0

> <PUBCHEM_BOND_UDEF_STEREO_COUNT>
0

> <PUBCHEM_ISOTOPIC_ATOM_COUNT>
0

> <PUBCHEM_COMPONENT_COUNT>
1

> <PUBCHEM_CACTVS_TAUTO_COUNT>
5

> <PUBCHEM_CONFORMER_ID>
017ABD6600000001

> <PUBCHEM_MMFF94_ENERGY>
96.2138

> <PUBCHEM_FEATURE_SELFOVERLAP>
66.252

> <PUBCHEM_SHAPE_FINGERPRINT>
10 15 12031791366255324887
10369192 42 10663824070452933547
10577160 103 18336256916299626461
10674148 151 14056715751557583062
11135926 11 17895196563202595171
11410812 94 16588293961320700820
11672396 167 18190453854386966146
12166972 35 17168155563387149620
12202916 173 18411420618070339631
12218070 45 17489306442408131719
12758862 11 17385720322715850765
12857493 111 18408318899984450797
13782708 43 18057900043624090070
13914758 101 15430033253839919422
1454969 45 18202283628136613182
14849402 71 15697708316277633850
15183329 4 8142090836581624058
15188451 53 17894632544229214074
16087824 20 18265897948696876289
16992727 255 17823693067612549885
20105231 36 12319457718854099652
21792961 116 17749109981064298043
21814621 53 15864643888987336052
23389318 12 18131063879123101918
23559900 14 18041282192137155137
249057 25 17894926092380073900
25019877 29 17418097620254950390
3633792 109 16950838112064339258
38570 142 12251899304932542415
3986486 107 18264750123070795757
4144715 1 17908150880968528946
4280585 95 18411419531590423239
4339292 15 18272650096356741310
4938544 92 16199880462423403819
508180 173 15285360630406421293
5104073 3 18195818367032832314
57035037 87 16805603720199367564
57527295 17 18041260112348908251
5969126 39 18341610391418060013
6086070 43 13190350083846471268
6126387 218 18131352990989397643
613672 6 18339375110164990511
6698420 124 11241972559919131879
9663363 56 18411697695358527179
9689198 14 12679465291982798926

> <PUBCHEM_SHAPE_MULTIPOLES>
637.5
22.85
3.4
1.76
16.06
5.06
-0.16
-17.52
-2.26
-1.88
0.31
-3.58
-1.02
0.44

> <PUBCHEM_SHAPE_SELFOVERLAP>
1400.617

> <PUBCHEM_SHAPE_VOLUME>
340.5

> <PUBCHEM_COORDINATE_TYPE>
2
5
10

$$$$
5328940
  -OEChem-11282412143D

 65 68  0     0  0  0  0  0  0999 V2000
   -3.4272   -2.3178    2.9379 Cl  0  0  0  0  0  0  0  0  0  0  0  0
   -6.4494   -3.9339   -1.1946 Cl  0  0  0  0  0  0  0  0  0  0  0  0
    3.1741    2.1538    0.0733 O   0  0  0  0  0  0  0  0  0  0  0  0
    2.2602   -0.2777    1.0724 O   0  0  0  0  0  0  0  0  0  0  0  0
   -5.5008   -1.3906   -2.4856 O   0  0  0  0  0  0  0  0  0  0  0  0
    5.8664   -0.0243   -0.2385 N   0  0  0  0  0  0  0  0  0  0  0  0
    6.9437   -2.7069   -0.2030 N   0  0  0  0  0  0  0  0  0  0  0  0
   -2.8012    0.0769    1.1756 N   0  0  0  0  0  0  0  0  0  0  0  0
   -1.3104    3.7073   -0.3234 N   0  0  0  0  0  0  0  0  0  0  0  0
   -5.7400    2.0607    0.5366 N   0  0  0  0  0  0  0  0  0  0  0  0
    6.1009   -0.7349    1.0245 C   0  0  0  0  0  0  0  0  0  0  0  0
    6.8117   -0.4795   -1.2653 C   0  0  0  0  0  0  0  0  0  0  0  0
    5.9989   -2.2508    0.8240 C   0  0  0  0  0  0  0  0  0  0  0  0
    6.7112   -1.9955   -1.4659 C   0  0  0  0  0  0  0  0  0  0  0  0
    5.9646    1.4213   -0.0469 C   0  0  0  0  0  0  0  0  0  0  0  0
    5.2262    2.1546   -1.1619 C   0  0  0  0  0  0  0  0  0  0  0  0
    6.8436   -4.1523   -0.3952 C   0  0  0  0  0  0  0  0  0  0  0  0
    3.7454    1.8001   -1.1787 C   0  0  0  0  0  0  0  0  0  0  0  0
    1.8327    1.9190    0.2296 C   0  0  0  0  0  0  0  0  0  0  0  0
    1.3812    0.7037    0.7291 C   0  0  0  0  0  0  0  0  0  0  0  0
   -0.9064    1.4899    0.5296 C   0  0  0  0  0  0  0  0  0  0  0  0
    0.9169    2.9150   -0.1184 C   0  0  0  0  0  0  0  0  0  0  0  0
   -0.4553    2.7262    0.0216 C   0  0  0  0  0  0  0  0  0  0  0  0
    0.0144    0.4878    0.8795 C   0  0  0  0  0  0  0  0  0  0  0  0
   -2.2876    1.2993    0.6707 C   0  0  0  0  0  0  0  0  0  0  0  0
   -3.1713    2.3084    0.3161 C   0  0  0  0  0  0  0  0  0  0  0  0
   -2.6359    3.4832   -0.1719 C   0  0  0  0  0  0  0  0  0  0  0  0
   -3.6648   -0.8837    0.6286 C   0  0  0  0  0  0  0  0  0  0  0  0
   -4.1656   -0.6788   -0.6571 C   0  0  0  0  0  0  0  0  0  0  0  0
    1.7106   -1.4937    1.5769 C   0  0  0  0  0  0  0  0  0  0  0  0
   -4.0248   -2.0259    1.3435 C   0  0  0  0  0  0  0  0  0  0  0  0
   -5.0265   -1.6163   -1.2276 C   0  0  0  0  0  0  0  0  0  0  0  0
   -4.5890    2.1718    0.4377 C   0  0  0  0  0  0  0  0  0  0  0  0
   -4.8856   -2.9635    0.7729 C   0  0  0  0  0  0  0  0  0  0  0  0
   -5.3865   -2.7586   -0.5127 C   0  0  0  0  0  0  0  0  0  0  0  0
   -5.0743   -0.1941   -3.1332 C   0  0  0  0  0  0  0  0  0  0  0  0
    5.3470   -0.4384    1.7640 H   0  0  0  0  0  0  0  0  0  0  0  0
    7.0855   -0.4803    1.4395 H   0  0  0  0  0  0  0  0  0  0  0  0
    7.8432   -0.2151   -0.9949 H   0  0  0  0  0  0  0  0  0  0  0  0
    6.5980   -0.0075   -2.2301 H   0  0  0  0  0  0  0  0  0  0  0  0
    4.9682   -2.5185    0.5541 H   0  0  0  0  0  0  0  0  0  0  0  0
    6.2240   -2.7409    1.7790 H   0  0  0  0  0  0  0  0  0  0  0  0
    7.4644   -2.2966   -2.2041 H   0  0  0  0  0  0  0  0  0  0  0  0
    5.7263   -2.2478   -1.8821 H   0  0  0  0  0  0  0  0  0  0  0  0
    5.5181    1.7129    0.9126 H   0  0  0  0  0  0  0  0  0  0  0  0
    7.0102    1.7527   -0.0042 H   0  0  0  0  0  0  0  0  0  0  0  0
    5.6694    1.9614   -2.1439 H   0  0  0  0  0  0  0  0  0  0  0  0
    5.3294    3.2314   -0.9767 H   0  0  0  0  0  0  0  0  0  0  0  0
    7.0625   -4.6803    0.5395 H   0  0  0  0  0  0  0  0  0  0  0  0
    7.5814   -4.4944   -1.1294 H   0  0  0  0  0  0  0  0  0  0  0  0
    5.8484   -4.4573   -0.7386 H   0  0  0  0  0  0  0  0  0  0  0  0
    3.2531    2.3701   -1.9762 H   0  0  0  0  0  0  0  0  0  0  0  0
    3.5904    0.7342   -1.3823 H   0  0  0  0  0  0  0  0  0  0  0  0
    1.2892    3.8617   -0.5076 H   0  0  0  0  0  0  0  0  0  0  0  0
   -0.3721   -0.4510    1.2578 H   0  0  0  0  0  0  0  0  0  0  0  0
   -2.3546   -0.2216    2.0381 H   0  0  0  0  0  0  0  0  0  0  0  0
   -3.2661    4.3163   -0.4699 H   0  0  0  0  0  0  0  0  0  0  0  0
   -3.8192    0.1829   -1.2109 H   0  0  0  0  0  0  0  0  0  0  0  0
    2.5525   -2.1572    1.8012 H   0  0  0  0  0  0  0  0  0  0  0  0
    1.0984   -2.0031    0.8249 H   0  0  0  0  0  0  0  0  0  0  0  0
    1.1738   -1.3354    2.5185 H   0  0  0  0  0  0  0  0  0  0  0  0
   -5.1668   -3.8548    1.3300 H   0  0  0  0  0  0  0  0  0  0  0  0
   -5.4106    0.7011   -2.5988 H   0  0  0  0  0  0  0  0  0  0  0  0
   -3.9946   -0.1958   -3.3186 H   0  0  0  0  0  0  0  0  0  0  0  0
   -5.5596   -0.1724   -4.1148 H   0  0  0  0  0  0  0  0  0  0  0  0
  1 31  1  0  0  0  0
  2 35  1  0  0  0  0
  3 18  1  0  0  0  0
  3 19  1  0  0  0  0
  4 20  1  0  0  0  0
  4 30  1  0  0  0  0
  5 32  1  0  0  0  0
  5 36  1  0  0  0  0
  6 11  1  0  0  0  0
  6 12  1  0  0  0  0
  6 15  1  0  0  0  0
  7 13  1  0  0  0  0
  7 14  1  0  0  0  0
  7 17  1  0  0  0  0
  8 25  1  0  0  0  0
  8 28  1  0  0  0  0
  8 56  1  0  0  0  0
  9 23  1  0  0  0  0
  9 27  2  0  0  0  0
 10 33  3  0  0  0  0
 11 13  1  0  0  0  0
 11 37  1  0  0  0  0
 11 38  1  0  0  0  0
 12 14  1  0  0  0  0
 12 39  1  0  0  0  0
 12 40  1  0  0  0  0
 13 41  1  0  0  0  0
 13 42  1  0  0  0  0
 14 43  1  0  0  0  0
 14 44  1  0  0  0  0
 15 16  1  0  0  0  0
 15 45  1  0  0  0  0
 15 46  1  0  0  0  0
 16 18  1  0  0  0  0
 16 47  1  0  0  0  0
 16 48  1  0  0  0  0
 17 49  1  0  0  0  0
 17 50  1  0  0  0  0
 17 51  1  0  0  0  0
 18 52  1  0  0  0  0
 18 53  1  0  0  0  0
 19 20  2  0  0  0  0
 19 22  1  0  0  0  0
 20 24  1  0  0  0  0
 21 23  1  0  0  0  0
 21 24  2  0  0  0  0
 21 25  1  0  0  0  0
 22 23  2  0  0  0  0
 22 54  1  0  0  0  0
 24 55  1  0  0  0  0
 25 26  2  0  0  0  0
 26 27  1  0  0  0  0
 26 33  1  0  0  0  0
 27 57  1  0  0  0  0
 28 29  2  0  0  0  0
 28 31  1  0  0  0  0
 29 32  1  0  0  0  0
 29 58  1  0  0  0  0
 30 59  1  0  0  0  0
 30 60  1  0  0  0  0
 30 61  1  0  0  0  0
 31 34  2  0  0  0  0
 32 35  2  0  0  0  0
 34 35  1  0  0  0  0
 34 62  1  0  0  0  0
 36 63  1  0  0  0  0
 36 64  1  0  0  0  0
 36 65  1  0  0  0  0
M  END
> <PUBCHEM_COMPOUND_CID>
5328940

> <PUBCHEM_CONFORMER_RMSD>
1.2

> <PUBCHEM_CONFORMER_DIVERSEORDER>
16
104
84
57
51
59
8
89
74
72
43
39
97
20
23
73
30
82
41
102
79
31
70
71
48
49
77
10
29
21
46
95
28
45
33
101
61
88
32
60
25
85
66
19
65
100
55
24
26
4
91
93
27
96
107
56
78
86
98
35
9
11
53
22
81
5
15
94
6
105
67
92
54
50
99
68
38
106
2
69
47
44
103
12
76
37
90
18
64
83
42
1
63
3
52
87
14
40
80
13
75
62
17
36
34
58
7

> <PUBCHEM_MMFF94_PARTIAL_CHARGES>
40
1 -0.18
10 -0.56
11 0.27
12 0.27
13 0.27
14 0.27
15 0.27
17 0.27
18 0.28
19 0.08
2 -0.18
20 0.08
22 -0.15
23 0.31
24 -0.15
25 0.1
26 0.07
27 0.16
28 0.1
29 -0.15
3 -0.36
30 0.28
31 0.18
32 0.08
33 0.48
34 -0.15
35 0.18
36 0.28
4 -0.36
5 -0.36
54 0.15
55 0.15
56 0.4
57 0.15
58 0.15
6 -0.81
62 0.15
7 -0.81
8 -0.6
9 -0.62

> <PUBCHEM_EFFECTIVE_ROTOR_COUNT>
10.2

> <PUBCHEM_PHARMACOPHORE_FEATURES>
13
1 10 acceptor
1 3 acceptor
1 4 acceptor
1 5 acceptor
1 6 cation
1 7 cation
1 8 cation
1 8 donor
1 9 acceptor
6 19 20 21 22 23 24 rings
6 28 29 31 32 34 35 rings
6 6 7 11 12 13 14 rings
6 9 21 23 25 26 27 rings

> <PUBCHEM_HEAVY_ATOM_COUNT>
36

> <PUBCHEM_ATOM_DEF_STEREO_COUNT>
0

> <PUBCHEM_ATOM_UDEF_STEREO_COUNT>
0

> <PUBCHEM_BOND_DEF_STEREO_COUNT>
0

> <PUBCHEM_BOND_UDEF_STEREO_COUNT>
0

> <PUBCHEM_ISOTOPIC_ATOM_COUNT>
0

> <PUBCHEM_COMPONENT_COUNT>
1

> <PUBCHEM_CACTVS_TAUTO_COUNT>
3

> <PUBCHEM_CONFORMER_ID>
0051502C00000010

> <PUBCHEM_MMFF94_ENERGY>
137.1319

> <PUBCHEM_FEATURE_SELFOVERLAP>
66.011

> <PUBCHEM_SHAPE_FINGERPRINT>
10622 236 18411701002151036036
10693767 8 18268143339142248782
11227688 84 18335425694340964313
117089 54 18337681900723244442
12013929 29 7925916989479910102
12422481 6 17632865196427710654
13583140 156 14260813701771212089
1361 4 18411703197248232028
13782708 43 17846776330103924810
14118638 360 18341337781839631404
14211702 104 18411141342379621602
14340393 91 18408597067951458891
14347332 77 18411983576502152680
14931854 50 17969204794332254627
15001296 14 18113900472886610856
15183329 4 17822289106858087728
18603816 31 17488727992355049741
19958102 18 18040150725820659180
21585483 132 18335128762199760442
21599406 157 17167871902093055542
21781055 127 17486778476877607329
23536364 44 18187077403910109397
23559900 14 18335695100555090529
23569914 152 18049697673388577517
2748736 6 8358264700773952542
50009960 94 18189321400401792634
513202 73 18413393154888447815
7970288 3 18195810897357047967

> <PUBCHEM_SHAPE_MULTIPOLES>
702.09
20.48
5.19
1.94
23.87
1.09
0.52
19.75
7.7
-1.26
0.38
-2.67
1.35
-0.94

> <PUBCHEM_SHAPE_SELFOVERLAP>
1485.759

> <PUBCHEM_SHAPE_VOLUME>
396.2

> <PUBCHEM_COORDINATE_TYPE>
2
5
10

$$$$
57335384
  -OEChem-11282412143D

 68 71  0     0  0  0  0  0  0999 V2000
    7.4320   -1.1859   -0.2921 F   0  0  0  0  0  0  0  0  0  0  0  0
    6.6777    0.3291   -1.6572 F   0  0  0  0  0  0  0  0  0  0  0  0
    6.6352    0.6833    0.4821 F   0  0  0  0  0  0  0  0  0  0  0  0
   -8.7717    0.0236   -1.1635 O   0  0  0  0  0  0  0  0  0  0  0  0
   -0.7330   -3.9114    1.2263 O   0  0  0  0  0  0  0  0  0  0  0  0
   -0.0827    0.4944    1.5968 O   0  0  0  0  0  0  0  0  0  0  0  0
   -3.7996   -0.7137   -0.6000 N   0  0  0  0  0  0  0  0  0  0  0  0
   -6.5017    0.3120   -0.7580 N   0  0  0  0  0  0  0  0  0  0  0  0
    1.4068   -2.7115   -0.1521 N   0  0  0  0  0  0  0  0  0  0  0  0
    2.6710   -0.7627   -0.4538 N   0  0  0  0  0  0  0  0  0  0  0  0
    3.7414   -2.8893   -0.0815 N   0  0  0  0  0  0  0  0  0  0  0  0
    3.9750    1.1952   -0.7535 N   0  0  0  0  0  0  0  0  0  0  0  0
   -0.0957    2.8284    1.2949 N   0  0  0  0  0  0  0  0  0  0  0  0
   -4.0419    0.7100   -0.8458 C   0  0  0  0  0  0  0  0  0  0  0  0
   -4.9573   -1.6084   -0.5148 C   0  0  0  0  0  0  0  0  0  0  0  0
   -5.3934    1.1373   -0.2732 C   0  0  0  0  0  0  0  0  0  0  0  0
   -6.1531   -1.0157   -1.2570 C   0  0  0  0  0  0  0  0  0  0  0  0
   -2.5047   -1.2138   -0.4860 C   0  0  0  0  0  0  0  0  0  0  0  0
   -7.8370    0.7171   -0.7557 C   0  0  0  0  0  0  0  0  0  0  0  0
   -2.2541   -2.3244    0.3199 C   0  0  0  0  0  0  0  0  0  0  0  0
   -1.4584   -0.6039   -1.1780 C   0  0  0  0  0  0  0  0  0  0  0  0
   -0.9572   -2.8253    0.4338 C   0  0  0  0  0  0  0  0  0  0  0  0
   -8.1133    2.0990   -0.2163 C   0  0  0  0  0  0  0  0  0  0  0  0
   -0.1614   -1.1047   -1.0639 C   0  0  0  0  0  0  0  0  0  0  0  0
    0.0891   -2.2154   -0.2581 C   0  0  0  0  0  0  0  0  0  0  0  0
    2.6675   -2.0913   -0.2338 C   0  0  0  0  0  0  0  0  0  0  0  0
   -0.4177   -3.6604    2.5941 C   0  0  0  0  0  0  0  0  0  0  0  0
    3.8955   -0.2005   -0.5240 C   0  0  0  0  0  0  0  0  0  0  0  0
    5.0727   -0.9069   -0.3848 C   0  0  0  0  0  0  0  0  0  0  0  0
    4.9331   -2.2619   -0.1631 C   0  0  0  0  0  0  0  0  0  0  0  0
    3.1231    2.2605   -0.4203 C   0  0  0  0  0  0  0  0  0  0  0  0
    6.4198   -0.2832   -0.4616 C   0  0  0  0  0  0  0  0  0  0  0  0
    1.9372    2.0152    0.2718 C   0  0  0  0  0  0  0  0  0  0  0  0
    3.4626    3.5643   -0.7819 C   0  0  0  0  0  0  0  0  0  0  0  0
    1.0909    3.0736    0.6026 C   0  0  0  0  0  0  0  0  0  0  0  0
    2.6162    4.6226   -0.4514 C   0  0  0  0  0  0  0  0  0  0  0  0
    1.4304    4.3773    0.2408 C   0  0  0  0  0  0  0  0  0  0  0  0
   -0.5980    1.5971    1.7375 C   0  0  0  0  0  0  0  0  0  0  0  0
   -1.9031    1.7569    2.4421 C   0  0  0  0  0  0  0  0  0  0  0  0
   -2.5424    0.6931    2.9387 C   0  0  0  0  0  0  0  0  0  0  0  0
   -4.0201    0.8976   -1.9264 H   0  0  0  0  0  0  0  0  0  0  0  0
   -3.2670    1.3304   -0.3804 H   0  0  0  0  0  0  0  0  0  0  0  0
   -5.2164   -1.7659    0.5393 H   0  0  0  0  0  0  0  0  0  0  0  0
   -4.7305   -2.5841   -0.9616 H   0  0  0  0  0  0  0  0  0  0  0  0
   -5.5746    2.1888   -0.5143 H   0  0  0  0  0  0  0  0  0  0  0  0
   -5.3872    1.0440    0.8197 H   0  0  0  0  0  0  0  0  0  0  0  0
   -7.0149   -1.6866   -1.1769 H   0  0  0  0  0  0  0  0  0  0  0  0
   -5.9244   -0.9035   -2.3241 H   0  0  0  0  0  0  0  0  0  0  0  0
   -3.0504   -2.8084    0.8797 H   0  0  0  0  0  0  0  0  0  0  0  0
   -1.6243    0.2478   -1.8319 H   0  0  0  0  0  0  0  0  0  0  0  0
   -7.7305    2.8527   -0.9092 H   0  0  0  0  0  0  0  0  0  0  0  0
   -7.6618    2.2265    0.7710 H   0  0  0  0  0  0  0  0  0  0  0  0
   -9.1939    2.2392   -0.1144 H   0  0  0  0  0  0  0  0  0  0  0  0
    0.6102   -0.6281   -1.6590 H   0  0  0  0  0  0  0  0  0  0  0  0
    1.4637   -3.6787    0.1522 H   0  0  0  0  0  0  0  0  0  0  0  0
   -0.2428   -4.6205    3.0872 H   0  0  0  0  0  0  0  0  0  0  0  0
   -1.2526   -3.1577    3.0927 H   0  0  0  0  0  0  0  0  0  0  0  0
    0.4892   -3.0534    2.6787 H   0  0  0  0  0  0  0  0  0  0  0  0
    5.7912   -2.9144   -0.0387 H   0  0  0  0  0  0  0  0  0  0  0  0
    4.7970    1.4766   -1.2800 H   0  0  0  0  0  0  0  0  0  0  0  0
    1.7162    1.0135    0.5872 H   0  0  0  0  0  0  0  0  0  0  0  0
    4.3837    3.7701   -1.3212 H   0  0  0  0  0  0  0  0  0  0  0  0
    2.8807    5.6377   -0.7330 H   0  0  0  0  0  0  0  0  0  0  0  0
    0.7805    5.2118    0.4917 H   0  0  0  0  0  0  0  0  0  0  0  0
   -0.6522    3.6572    1.4943 H   0  0  0  0  0  0  0  0  0  0  0  0
   -2.3338    2.7471    2.5416 H   0  0  0  0  0  0  0  0  0  0  0  0
   -2.1492   -0.3142    2.8622 H   0  0  0  0  0  0  0  0  0  0  0  0
   -3.4943    0.8199    3.4437 H   0  0  0  0  0  0  0  0  0  0  0  0
  1 32  1  0  0  0  0
  2 32  1  0  0  0  0
  3 32  1  0  0  0  0
  4 19  2  0  0  0  0
  5 22  1  0  0  0  0
  5 27  1  0  0  0  0
  6 38  2  0  0  0  0
  7 14  1  0  0  0  0
  7 15  1  0  0  0  0
  7 18  1  0  0  0  0
  8 16  1  0  0  0  0
  8 17  1  0  0  0  0
  8 19  1  0  0  0  0
  9 25  1  0  0  0  0
  9 26  1  0  0  0  0
  9 55  1  0  0  0  0
 10 26  1  0  0  0  0
 10 28  2  0  0  0  0
 11 26  2  0  0  0  0
 11 30  1  0  0  0  0
 12 28  1  0  0  0  0
 12 31  1  0  0  0  0
 12 60  1  0  0  0  0
 13 35  1  0  0  0  0
 13 38  1  0  0  0  0
 13 65  1  0  0  0  0
 14 16  1  0  0  0  0
 14 41  1  0  0  0  0
 14 42  1  0  0  0  0
 15 17  1  0  0  0  0
 15 43  1  0  0  0  0
 15 44  1  0  0  0  0
 16 45  1  0  0  0  0
 16 46  1  0  0  0  0
 17 47  1  0  0  0  0
 17 48  1  0  0  0  0
 18 20  2  0  0  0  0
 18 21  1  0  0  0  0
 19 23  1  0  0  0  0
 20 22  1  0  0  0  0
 20 49  1  0  0  0  0
 21 24  2  0  0  0  0
 21 50  1  0  0  0  0
 22 25  2  0  0  0  0
 23 51  1  0  0  0  0
 23 52  1  0  0  0  0
 23 53  1  0  0  0  0
 24 25  1  0  0  0  0
 24 54  1  0  0  0  0
 27 56  1  0  0  0  0
 27 57  1  0  0  0  0
 27 58  1  0  0  0  0
 28 29  1  0  0  0  0
 29 30  2  0  0  0  0
 29 32  1  0  0  0  0
 30 59  1  0  0  0  0
 31 33  2  0  0  0  0
 31 34  1  0  0  0  0
 33 35  1  0  0  0  0
 33 61  1  0  0  0  0
 34 36  2  0  0  0  0
 34 62  1  0  0  0  0
 35 37  2  0  0  0  0
 36 37  1  0  0  0  0
 36 63  1  0  0  0  0
 37 64  1  0  0  0  0
 38 39  1  0  0  0  0
 39 40  2  0  0  0  0
 39 66  1  0  0  0  0
 40 67  1  0  0  0  0
 40 68  1  0  0  0  0
M  END
> <PUBCHEM_COMPOUND_CID>
57335384

> <PUBCHEM_CONFORMER_RMSD>
1.2

> <PUBCHEM_CONFORMER_DIVERSEORDER>
1
56
68
41
67
63
64
70
21
59
44
31
14
50
30
66
69
58
12
65
43
33
54
49
62
32
18
46
55
48
60
28
27
20
57
47
11
23
17
42
45
38
36
37
2
19
15
53
22
13
29
40
51
10
16
35
8
24
25
39
34
52
9
5
6
3
7
4
26
61

> <PUBCHEM_MMFF94_PARTIAL_CHARGES>
54
1 -0.34
10 -0.62
11 -0.62
12 -0.6
13 -0.55
14 0.37
15 0.37
16 0.3
17 0.3
18 0.1
19 0.57
2 -0.34
20 -0.15
21 -0.15
22 0.08
23 0.06
24 -0.15
25 0.1
26 0.72
27 0.28
28 0.41
29 -0.14
3 -0.34
30 0.16
31 0.1
32 1.16
33 -0.15
34 -0.15
35 0.12
36 -0.15
37 -0.15
38 0.62
39 -0.14
4 -0.57
40 -0.3
49 0.15
5 -0.36
50 0.15
54 0.15
55 0.4
59 0.15
6 -0.57
60 0.4
61 0.15
62 0.15
63 0.15
64 0.15
65 0.37
66 0.15
67 0.15
68 0.15
7 -0.84
8 -0.66
9 -0.6

> <PUBCHEM_EFFECTIVE_ROTOR_COUNT>
12.2

> <PUBCHEM_PHARMACOPHORE_FEATURES>
13
1 12 donor
1 13 donor
1 4 acceptor
1 40 hydrophobe
1 5 acceptor
1 6 acceptor
1 7 cation
1 9 donor
4 9 10 11 26 cation
6 10 11 26 28 29 30 rings
6 18 20 21 22 24 25 rings
6 31 33 34 35 36 37 rings
6 7 8 14 15 16 17 rings

> <PUBCHEM_HEAVY_ATOM_COUNT>
40

> <PUBCHEM_ATOM_DEF_STEREO_COUNT>
0

> <PUBCHEM_ATOM_UDEF_STEREO_COUNT>
0

> <PUBCHEM_BOND_DEF_STEREO_COUNT>
0

> <PUBCHEM_BOND_UDEF_STEREO_COUNT>
0

> <PUBCHEM_ISOTOPIC_ATOM_COUNT>
0

> <PUBCHEM_COMPONENT_COUNT>
1

> <PUBCHEM_CACTVS_TAUTO_COUNT>
18

> <PUBCHEM_CONFORMER_ID>
036ADE5800000001

> <PUBCHEM_MMFF94_ENERGY>
149.6555

> <PUBCHEM_FEATURE_SELFOVERLAP>
65.971

> <PUBCHEM_SHAPE_FINGERPRINT>
10165383 225 17967531263881922751
10483366 6 18411419497030445809
10675989 125 18340201989963989713
11456790 92 18187079520812015507
12925494 130 18264204879959136183
13560911 43 18335135371636886145
140371 6 18341905108095539534
14068700 675 18131349678979398976
14117953 113 18413393125039825124
14394314 77 18201163131088522456
14400156 266 17988656155011388908
14464042 87 17988925539527943280
14849402 71 18409730651844905565
15183329 4 18411700976476216469
15351339 4 18337102350710018665
15420108 30 17338457578804005185
15439362 3 18265610064431357573
15975801 100 17024577907337866005
16087824 20 18410575050952668180
16090146 7 16702030807110756807
20715895 44 18410570729571522028
23559900 14 18340761658382463890
24893992 56 18408881863454925375
27425 322 17024025059215738461
46939830 39 18040724701129710388
57527295 17 17700965806920370629
57527306 92 18202273685245040006
57527452 28 16200431364318469558
5776283 40 18334297599510933781
58902169 19 18059563698973762759

> <PUBCHEM_SHAPE_MULTIPOLES>
748.89
17.89
5.14
1.72
18.75
2.46
-1.54
2.4
9.13
-4.21
-1.35
1.27
-0.08
-0.38

> <PUBCHEM_SHAPE_SELFOVERLAP>
1607.006

> <PUBCHEM_SHAPE_VOLUME>
412.1

> <PUBCHEM_COORDINATE_TYPE>
2
5
10

$$$$
72165228
  -OEChem-11282412143D

 49 52  0     1  0  0  0  0  0999 V2000
   -9.4923    0.6626   -0.0549 Cl  0  0  0  0  0  0  0  0  0  0  0  0
   -7.3429    1.8857    0.6153 F   0  0  0  0  0  0  0  0  0  0  0  0
   -7.4264    1.1973   -1.4731 F   0  0  0  0  0  0  0  0  0  0  0  0
    7.2466    0.4963    0.8370 O   0  0  0  0  0  0  0  0  0  0  0  0
   -1.0501   -2.7103    0.6920 O   0  0  0  0  0  0  0  0  0  0  0  0
   -7.0821   -0.3346    0.1777 O   0  0  0  0  0  0  0  0  0  0  0  0
    4.7860   -0.7885   -0.3894 N   0  0  3  0  0  0  0  0  0  0  0  0
    2.9566   -2.2336   -0.3131 N   0  0  0  0  0  0  0  0  0  0  0  0
    4.1210    1.8272    1.0650 N   0  0  0  0  0  0  0  0  0  0  0  0
    4.4920    3.1168    0.9928 N   0  0  0  0  0  0  0  0  0  0  0  0
   -1.5212   -0.5230   -0.0151 N   0  0  0  0  0  0  0  0  0  0  0  0
    7.0994   -0.6812    0.0506 C   0  0  2  0  0  0  0  0  0  0  0  0
    6.8563   -0.3128   -1.4046 C   0  0  0  0  0  0  0  0  0  0  0  0
    5.8125   -1.3999    0.4571 C   0  0  0  0  0  0  0  0  0  0  0  0
    5.3709    0.0501   -1.4322 C   0  0  0  0  0  0  0  0  0  0  0  0
    3.4307   -0.9714   -0.2145 C   0  0  0  0  0  0  0  0  0  0  0  0
    2.6402    0.1358    0.0482 C   0  0  0  0  0  0  0  0  0  0  0  0
    1.2752   -0.0653    0.2207 C   0  0  0  0  0  0  0  0  0  0  0  0
    3.1781    1.4726    0.1454 C   0  0  0  0  0  0  0  0  0  0  0  0
    0.7499   -1.3494    0.1265 C   0  0  0  0  0  0  0  0  0  0  0  0
    1.6249   -2.3901   -0.1397 C   0  0  0  0  0  0  0  0  0  0  0  0
    2.9136    2.6095   -0.5786 C   0  0  0  0  0  0  0  0  0  0  0  0
   -0.6711   -1.5928    0.3023 C   0  0  0  0  0  0  0  0  0  0  0  0
    3.7511    3.5896   -0.0131 C   0  0  0  0  0  0  0  0  0  0  0  0
   -2.9361   -0.4747    0.0338 C   0  0  0  0  0  0  0  0  0  0  0  0
   -3.6582   -1.5966    0.4407 C   0  0  0  0  0  0  0  0  0  0  0  0
   -3.6073    0.6944   -0.3247 C   0  0  0  0  0  0  0  0  0  0  0  0
   -5.0514   -1.5495    0.4889 C   0  0  0  0  0  0  0  0  0  0  0  0
   -5.0005    0.7415   -0.2765 C   0  0  0  0  0  0  0  0  0  0  0  0
   -5.7225   -0.3805    0.1303 C   0  0  0  0  0  0  0  0  0  0  0  0
   -7.7431    0.8749   -0.1949 C   0  0  0  0  0  0  0  0  0  0  0  0
    7.9916   -1.2990    0.1864 H   0  0  0  0  0  0  0  0  0  0  0  0
    7.0344   -1.1837   -2.0466 H   0  0  0  0  0  0  0  0  0  0  0  0
    7.4774    0.5178   -1.7525 H   0  0  0  0  0  0  0  0  0  0  0  0
    5.8784   -2.4689    0.2266 H   0  0  0  0  0  0  0  0  0  0  0  0
    5.5800   -1.2666    1.5189 H   0  0  0  0  0  0  0  0  0  0  0  0
    5.2772    1.1183   -1.2371 H   0  0  0  0  0  0  0  0  0  0  0  0
    4.9392   -0.1646   -2.4158 H   0  0  0  0  0  0  0  0  0  0  0  0
    7.3514    0.2178    1.7628 H   0  0  0  0  0  0  0  0  0  0  0  0
    0.6489    0.7886    0.4660 H   0  0  0  0  0  0  0  0  0  0  0  0
    1.2824   -3.4164   -0.2308 H   0  0  0  0  0  0  0  0  0  0  0  0
    2.2182    2.7186   -1.3984 H   0  0  0  0  0  0  0  0  0  0  0  0
    4.5569    1.2441    1.7689 H   0  0  0  0  0  0  0  0  0  0  0  0
    3.8527    4.6284   -0.2925 H   0  0  0  0  0  0  0  0  0  0  0  0
   -1.1035    0.3338   -0.3674 H   0  0  0  0  0  0  0  0  0  0  0  0
   -3.2114   -2.5361    0.7330 H   0  0  0  0  0  0  0  0  0  0  0  0
   -3.0557    1.5756   -0.6427 H   0  0  0  0  0  0  0  0  0  0  0  0
   -5.6099   -2.4260    0.8066 H   0  0  0  0  0  0  0  0  0  0  0  0
   -5.4485    1.6840   -0.5677 H   0  0  0  0  0  0  0  0  0  0  0  0
  1 31  1  0  0  0  0
  2 31  1  0  0  0  0
  3 31  1  0  0  0  0
  4 12  1  0  0  0  0
  4 39  1  0  0  0  0
  5 23  2  0  0  0  0
  6 30  1  0  0  0  0
  6 31  1  0  0  0  0
  7 14  1  0  0  0  0
  7 15  1  0  0  0  0
  7 16  1  0  0  0  0
  8 16  1  0  0  0  0
  8 21  2  0  0  0  0
  9 10  1  0  0  0  0
  9 19  1  0  0  0  0
  9 43  1  0  0  0  0
 10 24  2  0  0  0  0
 11 23  1  0  0  0  0
 11 25  1  0  0  0  0
 11 45  1  0  0  0  0
 12 13  1  0  0  0  0
 12 14  1  0  0  0  0
 12 32  1  0  0  0  0
 13 15  1  0  0  0  0
 13 33  1  0  0  0  0
 13 34  1  0  0  0  0
 14 35  1  0  0  0  0
 14 36  1  0  0  0  0
 15 37  1  0  0  0  0
 15 38  1  0  0  0  0
 16 17  2  0  0  0  0
 17 18  1  0  0  0  0
 17 19  1  0  0  0  0
 18 20  2  0  0  0  0
 18 40  1  0  0  0  0
 19 22  2  0  0  0  0
 20 21  1  0  0  0  0
 20 23  1  0  0  0  0
 21 41  1  0  0  0  0
 22 24  1  0  0  0  0
 22 42  1  0  0  0  0
 24 44  1  0  0  0  0
 25 26  2  0  0  0  0
 25 27  1  0  0  0  0
 26 28  1  0  0  0  0
 26 46  1  0  0  0  0
 27 29  2  0  0  0  0
 27 47  1  0  0  0  0
 28 30  2  0  0  0  0
 28 48  1  0  0  0  0
 29 30  1  0  0  0  0
 29 49  1  0  0  0  0
M  END
> <PUBCHEM_COMPOUND_CID>
72165228

> <PUBCHEM_CONFORMER_RMSD>
1

> <PUBCHEM_CONFORMER_DIVERSEORDER>
2
5
23
31
18
33
22
35
7
1
12
4
20
41
6
10
17
11
30
26
19
21
9
29
38
37
34
25
40
28
27
39
43
36
32
16
24
13
3
8
14
42
15

> <PUBCHEM_MMFF94_PARTIAL_CHARGES>
41
1 -0.29
10 -0.71
11 -0.55
12 0.28
14 0.37
15 0.37
16 0.41
17 0.05
18 -0.15
19 -0.2
2 -0.34
20 0.09
21 0.16
22 -0.15
23 0.54
24 0.14
25 0.12
26 -0.15
27 -0.15
28 -0.15
29 -0.15
3 -0.34
30 0.08
31 1.25
39 0.4
4 -0.68
40 0.15
41 0.15
42 0.15
43 0.27
44 0.15
45 0.37
46 0.15
47 0.15
48 0.15
49 0.15
5 -0.57
6 -0.36
7 -0.84
8 -0.62
9 0.3

> <PUBCHEM_EFFECTIVE_ROTOR_COUNT>
8

> <PUBCHEM_PHARMACOPHORE_FEATURES>
13
1 10 acceptor
1 11 donor
1 4 acceptor
1 4 donor
1 5 acceptor
1 6 acceptor
1 7 cation
1 8 acceptor
1 9 donor
5 7 12 13 14 15 rings
5 9 10 19 22 24 rings
6 25 26 27 28 29 30 rings
6 8 16 17 18 20 21 rings

> <PUBCHEM_HEAVY_ATOM_COUNT>
31

> <PUBCHEM_ATOM_DEF_STEREO_COUNT>
1

> <PUBCHEM_ATOM_UDEF_STEREO_COUNT>
0

> <PUBCHEM_BOND_DEF_STEREO_COUNT>
0

> <PUBCHEM_BOND_UDEF_STEREO_COUNT>
0

> <PUBCHEM_ISOTOPIC_ATOM_COUNT>
0

> <PUBCHEM_COMPONENT_COUNT>
1

> <PUBCHEM_CACTVS_TAUTO_COUNT>
4

> <PUBCHEM_CONFORMER_ID>
044D276C00000002

> <PUBCHEM_MMFF94_ENERGY>
110.2167

> <PUBCHEM_FEATURE_SELFOVERLAP>
65.974

> <PUBCHEM_SHAPE_FINGERPRINT>
10 15 17675928682116489923
10050765 1 18194683906950563778
10162869 55 18343291579473328135
10165383 225 18040158409686340310
10411042 1 17979636737308374630
10763959 59 18259988205743638788
11135609 127 18130218362886583424
11456790 92 18187645761026734666
11719270 70 18412260597867543178
12035758 1 18266437933338060920
12664476 115 18187080642431787869
13560911 43 18261107448324923200
14170010 4 18344145900076395616
14556957 393 17060351712369454009
15064981 194 18268446770740460055
15183329 4 18412270523145625896
15439362 3 18192998351852650332
15483637 11 18121497947558090997
15537594 2 11530482254942232032
16087824 20 18410013222175588916
18335252 114 18341610395586193054
19053607 189 18051123997937969976
19611394 137 17896616162179790403
20715895 44 18412824715855870744
20721686 124 18201722812477081287
21033648 29 17968375753093638706
21585482 111 18190178980811867117
23559900 14 18341048601116260810
23576562 1 18194692681700203550
24893992 56 18334295383634772483
249057 3 18273495684452396255
255183 451 17771355166984130918
2838139 119 18410568479805237807
3004659 81 18411698785583836576
335352 9 18411141338237823886
335507 130 18202001049944586367
350125 39 18408605864123420388
4066623 53 16487254378582560168
4073 2 17968101974714751419
5104073 3 18187083971210693243
54076057 255 17168437042754130884
58902169 19 17917703613361633205

> <PUBCHEM_SHAPE_MULTIPOLES>
582.77
25.02
2.92
0.93
39.07
1.74
0.16
7.66
2.3
-3.12
-0.47
-0.78
0.19
1.25

> <PUBCHEM_SHAPE_SELFOVERLAP>
1267.555

> <PUBCHEM_SHAPE_VOLUME>
320.6

> <PUBCHEM_COORDINATE_TYPE>
2
5
10

$$$$
56947515
  -OEChem-11282412143D

 59 63  0     0  0  0  0  0  0999 V2000
   -3.4595    0.6970   -2.1537 F   0  0  0  0  0  0  0  0  0  0  0  0
   -5.3695   -0.3056   -2.4270 F   0  0  0  0  0  0  0  0  0  0  0  0
   -5.1026    1.0837   -0.7830 F   0  0  0  0  0  0  0  0  0  0  0  0
    2.6503    0.2875   -0.1721 N   0  0  0  0  0  0  0  0  0  0  0  0
    4.7816   -0.4954   -0.3145 N   0  0  0  0  0  0  0  0  0  0  0  0
    3.2405   -3.7995    0.3953 N   0  0  0  0  0  0  0  0  0  0  0  0
    0.1878    2.9862   -0.7705 N   0  0  0  0  0  0  0  0  0  0  0  0
    4.4428    1.8882   -0.5539 N   0  0  0  0  0  0  0  0  0  0  0  0
   -4.4523   -2.8045    0.9673 N   0  0  0  0  0  0  0  0  0  0  0  0
   -6.2354   -1.4791    0.1363 N   0  0  0  0  0  0  0  0  0  0  0  0
   -3.6095    3.0441    1.5778 N   0  0  0  0  0  0  0  0  0  0  0  0
    6.9054    2.1306   -0.8881 N   0  0  0  0  0  0  0  0  0  0  0  0
    2.6183   -1.1316    0.0091 C   0  0  0  0  0  0  0  0  0  0  0  0
    3.9500   -1.5751   -0.0435 C   0  0  0  0  0  0  0  0  0  0  0  0
    1.5652   -2.0443    0.1742 C   0  0  0  0  0  0  0  0  0  0  0  0
    4.0084    0.6767   -0.3812 C   0  0  0  0  0  0  0  0  0  0  0  0
    1.6404    1.2495    0.0772 C   0  0  0  0  0  0  0  0  0  0  0  0
    1.9519   -3.3912    0.3886 C   0  0  0  0  0  0  0  0  0  0  0  0
    0.1860   -1.7360    0.1043 C   0  0  0  0  0  0  0  0  0  0  0  0
    4.2185   -2.8987    0.1609 C   0  0  0  0  0  0  0  0  0  0  0  0
   -0.7842   -2.7167    0.2978 C   0  0  0  0  0  0  0  0  0  0  0  0
   -1.3631    4.1538    0.6767 C   0  0  0  0  0  0  0  0  0  0  0  0
    6.2174   -0.6354   -0.3720 C   0  0  0  0  0  0  0  0  0  0  0  0
   -0.3023    3.1223    0.4821 C   0  0  0  0  0  0  0  0  0  0  0  0
    1.1115    1.4190    1.3519 C   0  0  0  0  0  0  0  0  0  0  0  0
    0.9602   -4.3470    0.5851 C   0  0  0  0  0  0  0  0  0  0  0  0
    1.1489    2.0508   -0.9408 C   0  0  0  0  0  0  0  0  0  0  0  0
   -0.3959   -4.0229    0.5488 C   0  0  0  0  0  0  0  0  0  0  0  0
    0.1213    2.3712    1.5666 C   0  0  0  0  0  0  0  0  0  0  0  0
   -2.1884   -2.3742    0.2362 C   0  0  0  0  0  0  0  0  0  0  0  0
   -0.9134    5.2264    1.7155 C   0  0  0  0  0  0  0  0  0  0  0  0
   -1.7689    4.9533   -0.6046 C   0  0  0  0  0  0  0  0  0  0  0  0
   -2.6384   -1.3344   -0.5698 C   0  0  0  0  0  0  0  0  0  0  0  0
   -3.1271   -3.0722    0.9787 C   0  0  0  0  0  0  0  0  0  0  0  0
   -2.6374    3.5427    1.1854 C   0  0  0  0  0  0  0  0  0  0  0  0
   -3.9944   -1.0288   -0.6081 C   0  0  0  0  0  0  0  0  0  0  0  0
   -4.8523   -1.7869    0.1721 C   0  0  0  0  0  0  0  0  0  0  0  0
    5.7617    2.0095   -0.7319 C   0  0  0  0  0  0  0  0  0  0  0  0
   -4.4736    0.0868   -1.4734 C   0  0  0  0  0  0  0  0  0  0  0  0
   -0.1086   -0.7098   -0.0819 H   0  0  0  0  0  0  0  0  0  0  0  0
    5.2179   -3.3140    0.1503 H   0  0  0  0  0  0  0  0  0  0  0  0
    6.6057   -0.3434   -1.3525 H   0  0  0  0  0  0  0  0  0  0  0  0
    6.5439   -1.6737   -0.2522 H   0  0  0  0  0  0  0  0  0  0  0  0
    6.7058   -0.0936    0.4442 H   0  0  0  0  0  0  0  0  0  0  0  0
    1.4633    0.8175    2.1858 H   0  0  0  0  0  0  0  0  0  0  0  0
    1.2389   -5.3857    0.7571 H   0  0  0  0  0  0  0  0  0  0  0  0
    1.5199    1.9636   -1.9576 H   0  0  0  0  0  0  0  0  0  0  0  0
   -1.1091   -4.8315    0.6825 H   0  0  0  0  0  0  0  0  0  0  0  0
   -0.2923    2.4960    2.5614 H   0  0  0  0  0  0  0  0  0  0  0  0
   -0.7404    4.7949    2.7083 H   0  0  0  0  0  0  0  0  0  0  0  0
   -1.6746    6.0065    1.8403 H   0  0  0  0  0  0  0  0  0  0  0  0
    0.0171    5.7116    1.3975 H   0  0  0  0  0  0  0  0  0  0  0  0
   -2.1499    4.2820   -1.3843 H   0  0  0  0  0  0  0  0  0  0  0  0
   -2.5565    5.6868   -0.3926 H   0  0  0  0  0  0  0  0  0  0  0  0
   -0.9096    5.4927   -1.0200 H   0  0  0  0  0  0  0  0  0  0  0  0
   -1.9548   -0.7705   -1.1982 H   0  0  0  0  0  0  0  0  0  0  0  0
   -2.8636   -3.8794    1.6549 H   0  0  0  0  0  0  0  0  0  0  0  0
   -6.5144   -0.5203   -0.0303 H   0  0  0  0  0  0  0  0  0  0  0  0
   -6.8407   -2.0509    0.7128 H   0  0  0  0  0  0  0  0  0  0  0  0
  1 39  1  0  0  0  0
  2 39  1  0  0  0  0
  3 39  1  0  0  0  0
  4 13  1  0  0  0  0
  4 16  1  0  0  0  0
  4 17  1  0  0  0  0
  5 14  1  0  0  0  0
  5 16  1  0  0  0  0
  5 23  1  0  0  0  0
  6 18  2  0  0  0  0
  6 20  1  0  0  0  0
  7 24  2  0  0  0  0
  7 27  1  0  0  0  0
  8 16  2  0  0  0  0
  8 38  1  0  0  0  0
  9 34  2  0  0  0  0
  9 37  1  0  0  0  0
 10 37  1  0  0  0  0
 10 58  1  0  0  0  0
 10 59  1  0  0  0  0
 11 35  3  0  0  0  0
 12 38  3  0  0  0  0
 13 14  1  0  0  0  0
 13 15  2  0  0  0  0
 14 20  2  0  0  0  0
 15 18  1  0  0  0  0
 15 19  1  0  0  0  0
 17 25  1  0  0  0  0
 17 27  2  0  0  0  0
 18 26  1  0  0  0  0
 19 21  2  0  0  0  0
 19 40  1  0  0  0  0
 20 41  1  0  0  0  0
 21 28  1  0  0  0  0
 21 30  1  0  0  0  0
 22 24  1  0  0  0  0
 22 31  1  0  0  0  0
 22 32  1  0  0  0  0
 22 35  1  0  0  0  0
 23 42  1  0  0  0  0
 23 43  1  0  0  0  0
 23 44  1  0  0  0  0
 24 29  1  0  0  0  0
 25 29  2  0  0  0  0
 25 45  1  0  0  0  0
 26 28  2  0  0  0  0
 26 46  1  0  0  0  0
 27 47  1  0  0  0  0
 28 48  1  0  0  0  0
 29 49  1  0  0  0  0
 30 33  2  0  0  0  0
 30 34  1  0  0  0  0
 31 50  1  0  0  0  0
 31 51  1  0  0  0  0
 31 52  1  0  0  0  0
 32 53  1  0  0  0  0
 32 54  1  0  0  0  0
 32 55  1  0  0  0  0
 33 36  1  0  0  0  0
 33 56  1  0  0  0  0
 34 57  1  0  0  0  0
 36 37  2  0  0  0  0
 36 39  1  0  0  0  0
M  END
> <PUBCHEM_COMPOUND_CID>
56947515

> <PUBCHEM_CONFORMER_RMSD>
0.8

> <PUBCHEM_CONFORMER_DIVERSEORDER>
20
19
42
11
41
1
21
5
40
16
24
12
26
8
39
36
34
2
37
32
43
15
23
18
28
9
33
10
22
6
35
4
25
13
27
14
38
3
30
7
31
17
29

> <PUBCHEM_MMFF94_PARTIAL_CHARGES>
45
1 -0.34
10 -0.9
11 -0.56
12 -0.56
13 0.1
14 0.1
16 0.55
17 0.1
18 0.31
19 -0.15
2 -0.34
20 0.16
22 0.34
23 0.37
24 0.17
25 -0.15
26 -0.15
27 0.16
28 -0.15
29 -0.15
3 -0.34
33 -0.15
34 0.16
35 0.36
36 -0.14
37 0.41
38 0.66
39 1.16
4 -0.25
40 0.15
41 0.15
45 0.15
46 0.15
47 0.15
48 0.15
49 0.15
5 -0.52
56 0.15
57 0.15
58 0.4
59 0.4
6 -0.62
7 -0.62
8 -0.56
9 -0.62

> <PUBCHEM_EFFECTIVE_ROTOR_COUNT>
4

> <PUBCHEM_PHARMACOPHORE_FEATURES>
14
1 10 cation
1 10 donor
1 11 acceptor
1 12 acceptor
1 6 acceptor
1 7 acceptor
1 9 acceptor
3 22 31 32 hydrophobe
4 4 5 8 16 cation
5 4 5 13 14 16 rings
6 15 18 19 21 26 28 rings
6 6 13 14 15 18 20 rings
6 7 17 24 25 27 29 rings
6 9 30 33 34 36 37 rings

> <PUBCHEM_HEAVY_ATOM_COUNT>
39

> <PUBCHEM_ATOM_DEF_STEREO_COUNT>
0

> <PUBCHEM_ATOM_UDEF_STEREO_COUNT>
0

> <PUBCHEM_BOND_DEF_STEREO_COUNT>
0

> <PUBCHEM_BOND_UDEF_STEREO_COUNT>
0

> <PUBCHEM_ISOTOPIC_ATOM_COUNT>
0

> <PUBCHEM_COMPONENT_COUNT>
1

> <PUBCHEM_CACTVS_TAUTO_COUNT>
2

> <PUBCHEM_CONFORMER_ID>
0364F33B00000014

> <PUBCHEM_MMFF94_ENERGY>
163.7328

> <PUBCHEM_FEATURE_SELFOVERLAP>
71.17

> <PUBCHEM_SHAPE_FINGERPRINT>
10190206 1 18265071244500367900
10439779 11 17835794575670240474
10653451 467 17838880883214012160
10675989 125 18408599249736497978
11513181 2 17843121402813643822
12156800 1 17910431357445465485
12788726 201 18412822469830762842
13402501 40 18261388992289940711
1361 2 17041197935897555777
14394314 77 18341624698345104625
15001296 14 18264491685021948817
150020 26 18044942517938239899
15320467 1 18337957895231286905
15351339 4 18335974324904907051
15483637 11 18193279581261117123
15968369 153 18130492059629521818
18608769 82 18116717520229716203
20764821 26 18409445925314012459
21133410 62 17899973838921513245
45266715 3 17911204498946160781
463206 1 18125722279705182209
50150288 127 17559115367768787193
5265222 85 17827648272640124860
5776283 40 17542516375810680244
6036956 94 18265059041829003085
653340 110 18340483375130586834

> <PUBCHEM_SHAPE_MULTIPOLES>
735.95
12.18
7.41
1.35
4.5
4.34
-0.24
-1.57
-4.43
-2.57
2.84
-1.55
0.93
-1.25

> <PUBCHEM_SHAPE_SELFOVERLAP>
1644.728

> <PUBCHEM_SHAPE_VOLUME>
391.5

> <PUBCHEM_COORDINATE_TYPE>
2
5
10

$$$$
3081361
  -OEChem-11282412143D

 54 57  0     0  0  0  0  0  0999 V2000
   -9.0315    1.2192    0.4490 Br  0  0  0  0  0  0  0  0  0  0  0  0
   -4.4554    2.2244   -1.8406 F   0  0  0  0  0  0  0  0  0  0  0  0
    3.0566   -0.6845    1.0467 O   0  0  0  0  0  0  0  0  0  0  0  0
    1.5908    1.6713    0.8967 O   0  0  0  0  0  0  0  0  0  0  0  0
    7.4356    1.1999   -0.8693 N   0  0  0  0  0  0  0  0  0  0  0  0
   -0.7937   -3.1978   -0.1937 N   0  0  0  0  0  0  0  0  0  0  0  0
   -3.0891    0.2364   -0.4519 N   0  0  0  0  0  0  0  0  0  0  0  0
   -2.8949   -2.1017   -0.6296 N   0  0  0  0  0  0  0  0  0  0  0  0
    5.3031   -0.4618    0.2649 C   0  0  0  0  0  0  0  0  0  0  0  0
    5.1325    1.0415    0.0208 C   0  0  0  0  0  0  0  0  0  0  0  0
    6.3660   -1.0232   -0.6855 C   0  0  0  0  0  0  0  0  0  0  0  0
    6.4757    1.7717    0.0846 C   0  0  0  0  0  0  0  0  0  0  0  0
    7.6683   -0.2249   -0.5977 C   0  0  0  0  0  0  0  0  0  0  0  0
    3.9764   -1.1981    0.1009 C   0  0  0  0  0  0  0  0  0  0  0  0
    8.6964    1.9407   -0.8327 C   0  0  0  0  0  0  0  0  0  0  0  0
    1.7280   -0.7084    0.7013 C   0  0  0  0  0  0  0  0  0  0  0  0
    1.0060    0.4714    0.6298 C   0  0  0  0  0  0  0  0  0  0  0  0
    1.1243   -1.9331    0.4257 C   0  0  0  0  0  0  0  0  0  0  0  0
   -0.2203   -2.0105    0.0706 C   0  0  0  0  0  0  0  0  0  0  0  0
   -0.9494   -0.8122   -0.0009 C   0  0  0  0  0  0  0  0  0  0  0  0
   -0.3393    0.4233    0.2774 C   0  0  0  0  0  0  0  0  0  0  0  0
   -2.2896   -0.9300   -0.3588 C   0  0  0  0  0  0  0  0  0  0  0  0
   -2.0996   -3.1790   -0.5289 C   0  0  0  0  0  0  0  0  0  0  0  0
    1.5544    2.1247    2.2489 C   0  0  0  0  0  0  0  0  0  0  0  0
   -4.4589    0.4646   -0.2454 C   0  0  0  0  0  0  0  0  0  0  0  0
   -5.1224    1.4697   -0.9558 C   0  0  0  0  0  0  0  0  0  0  0  0
   -5.1691   -0.3137    0.6734 C   0  0  0  0  0  0  0  0  0  0  0  0
   -6.4835    1.6943   -0.7491 C   0  0  0  0  0  0  0  0  0  0  0  0
   -6.5301   -0.0892    0.8801 C   0  0  0  0  0  0  0  0  0  0  0  0
   -7.1874    0.9149    0.1689 C   0  0  0  0  0  0  0  0  0  0  0  0
    5.6469   -0.5934    1.3003 H   0  0  0  0  0  0  0  0  0  0  0  0
    4.4624    1.4774    0.7703 H   0  0  0  0  0  0  0  0  0  0  0  0
    4.6697    1.2141   -0.9599 H   0  0  0  0  0  0  0  0  0  0  0  0
    5.9954   -1.0016   -1.7188 H   0  0  0  0  0  0  0  0  0  0  0  0
    6.5671   -2.0734   -0.4422 H   0  0  0  0  0  0  0  0  0  0  0  0
    6.3008    2.8280   -0.1536 H   0  0  0  0  0  0  0  0  0  0  0  0
    6.8694    1.7297    1.1089 H   0  0  0  0  0  0  0  0  0  0  0  0
    8.1206   -0.3659    0.3929 H   0  0  0  0  0  0  0  0  0  0  0  0
    8.3688   -0.6337   -1.3362 H   0  0  0  0  0  0  0  0  0  0  0  0
    4.1168   -2.2687    0.2903 H   0  0  0  0  0  0  0  0  0  0  0  0
    3.6019   -1.0753   -0.9243 H   0  0  0  0  0  0  0  0  0  0  0  0
    9.3958    1.5470   -1.5787 H   0  0  0  0  0  0  0  0  0  0  0  0
    9.1773    1.8920    0.1509 H   0  0  0  0  0  0  0  0  0  0  0  0
    8.5311    2.9943   -1.0841 H   0  0  0  0  0  0  0  0  0  0  0  0
    1.7055   -2.8507    0.4958 H   0  0  0  0  0  0  0  0  0  0  0  0
   -0.8915    1.3586    0.2329 H   0  0  0  0  0  0  0  0  0  0  0  0
   -2.6302    0.9924   -0.9529 H   0  0  0  0  0  0  0  0  0  0  0  0
   -2.5557   -4.1384   -0.7402 H   0  0  0  0  0  0  0  0  0  0  0  0
    2.0730    1.4191    2.9055 H   0  0  0  0  0  0  0  0  0  0  0  0
    0.5199    2.2576    2.5809 H   0  0  0  0  0  0  0  0  0  0  0  0
    2.0655    3.0899    2.3000 H   0  0  0  0  0  0  0  0  0  0  0  0
   -4.6780   -1.0929    1.2505 H   0  0  0  0  0  0  0  0  0  0  0  0
   -6.9802    2.4806   -1.3116 H   0  0  0  0  0  0  0  0  0  0  0  0
   -7.0635   -0.7033    1.6012 H   0  0  0  0  0  0  0  0  0  0  0  0
  1 30  1  0  0  0  0
  2 26  1  0  0  0  0
  3 14  1  0  0  0  0
  3 16  1  0  0  0  0
  4 17  1  0  0  0  0
  4 24  1  0  0  0  0
  5 12  1  0  0  0  0
  5 13  1  0  0  0  0
  5 15  1  0  0  0  0
  6 19  1  0  0  0  0
  6 23  2  0  0  0  0
  7 22  1  0  0  0  0
  7 25  1  0  0  0  0
  7 47  1  0  0  0  0
  8 22  2  0  0  0  0
  8 23  1  0  0  0  0
  9 10  1  0  0  0  0
  9 11  1  0  0  0  0
  9 14  1  0  0  0  0
  9 31  1  0  0  0  0
 10 12  1  0  0  0  0
 10 32  1  0  0  0  0
 10 33  1  0  0  0  0
 11 13  1  0  0  0  0
 11 34  1  0  0  0  0
 11 35  1  0  0  0  0
 12 36  1  0  0  0  0
 12 37  1  0  0  0  0
 13 38  1  0  0  0  0
 13 39  1  0  0  0  0
 14 40  1  0  0  0  0
 14 41  1  0  0  0  0
 15 42  1  0  0  0  0
 15 43  1  0  0  0  0
 15 44  1  0  0  0  0
 16 17  2  0  0  0  0
 16 18  1  0  0  0  0
 17 21  1  0  0  0  0
 18 19  2  0  0  0  0
 18 45  1  0  0  0  0
 19 20  1  0  0  0  0
 20 21  2  0  0  0  0
 20 22  1  0  0  0  0
 21 46  1  0  0  0  0
 23 48  1  0  0  0  0
 24 49  1  0  0  0  0
 24 50  1  0  0  0  0
 24 51  1  0  0  0  0
 25 26  2  0  0  0  0
 25 27  1  0  0  0  0
 26 28  1  0  0  0  0
 27 29  2  0  0  0  0
 27 52  1  0  0  0  0
 28 30  2  0  0  0  0
 28 53  1  0  0  0  0
 29 30  1  0  0  0  0
 29 54  1  0  0  0  0
M  END
> <PUBCHEM_COMPOUND_CID>
3081361

> <PUBCHEM_CONFORMER_RMSD>
1

> <PUBCHEM_CONFORMER_DIVERSEORDER>
2
93
107
57
133
56
17
97
90
53
103
145
110
22
68
142
8
47
96
52
141
78
125
95
75
99
69
48
104
91
55
15
124
82
111
20
150
21
64
58
101
45
113
122
121
105
102
43
83
128
138
132
34
42
143
37
12
118
13
117
73
14
147
85
108
135
148
134
137
149
67
30
54
106
10
7
131
129
100
77
76
41
6
109
126
24
114
40
112
27
87
130
51
71
60
79
139
32
29
28
16
44
9
31
65
92
152
33
19
18
115
50
72
5
11
140
26
4
81
84
49
74
36
80
116
88
86
120
23
3
119
63
1
38
127
39
46
89
66
35
151
144
59
98
61
146
25
70
94
62
123
136

> <PUBCHEM_MMFF94_PARTIAL_CHARGES>
33
1 -0.11
12 0.27
13 0.27
14 0.28
15 0.27
16 0.08
17 0.08
18 -0.15
19 0.31
2 -0.19
21 -0.15
22 0.41
23 0.47
24 0.28
25 0.1
26 0.19
27 -0.15
28 -0.15
29 -0.15
3 -0.36
30 0.11
4 -0.36
45 0.15
46 0.15
47 0.4
48 0.15
5 -0.81
52 0.15
53 0.15
54 0.15
6 -0.62
7 -0.6
8 -0.62

> <PUBCHEM_EFFECTIVE_ROTOR_COUNT>
7.2

> <PUBCHEM_PHARMACOPHORE_FEATURES>
11
1 1 hydrophobe
1 3 acceptor
1 4 acceptor
1 5 cation
1 7 donor
3 6 8 23 cation
3 7 8 22 cation
6 16 17 18 19 20 21 rings
6 25 26 27 28 29 30 rings
6 5 9 10 11 12 13 rings
6 6 8 19 20 22 23 rings

> <PUBCHEM_HEAVY_ATOM_COUNT>
30

> <PUBCHEM_ATOM_DEF_STEREO_COUNT>
0

> <PUBCHEM_ATOM_UDEF_STEREO_COUNT>
0

> <PUBCHEM_BOND_DEF_STEREO_COUNT>
0

> <PUBCHEM_BOND_UDEF_STEREO_COUNT>
0

> <PUBCHEM_ISOTOPIC_ATOM_COUNT>
0

> <PUBCHEM_COMPONENT_COUNT>
1

> <PUBCHEM_CACTVS_TAUTO_COUNT>
3

> <PUBCHEM_CONFORMER_ID>
002F049100000002

> <PUBCHEM_MMFF94_ENERGY>
104.7438

> <PUBCHEM_FEATURE_SELFOVERLAP>
55.998

> <PUBCHEM_SHAPE_FINGERPRINT>
10 15 18040154007217851955
10066227 112 18411417315102442388
10165383 225 18411983555575799389
10369192 42 18335138670403761703
106641 1 17312828178204469889
10816530 90 18340760529624087592
10906281 52 17988656172238503066
11607047 141 16083042976205188641
11796584 16 13829834829832085509
11828422 8 15263932377057143049
12788726 201 17916865708107525418
13540713 4 17700964702950368994
13627175 23 18130799945157137145
13690498 29 18128249197685881142
13914758 101 13830140472384431715
14790565 3 18340487742485046808
14849402 71 18342177756993773585
14933364 13 18260830388489533548
15064986 266 18115315595975912586
15183329 4 17989488511230618144
15188451 53 10663822975357468494
15444296 7 18040722493205069372
15461852 350 17988638623888212503
1577012 14 18334851749756827934
15840311 113 18040439880172469884
15849732 13 18186805776781634445
16126227 98 18409449197968185941
16994733 274 17167860846847527828
18608769 82 18409450310860984035
19611394 137 17677348228863683057
20505436 4 18187359939575788586
21033648 29 18339067293747100393
21279426 13 18130221670601972376
21424621 283 17821728338827265322
21756936 100 17894629292216466755
21781055 127 17703230594789584034
22224240 67 13479138994751467488
23559900 14 17917141823302803608
23576562 1 18267298910344177749
249057 3 18343022211914387988
3178227 256 18411422787339080091
335352 9 18273494585309714999
350125 39 18410853261743300801
4073 2 17822015332468193394
4408954 64 16230581258065559619
474113 269 12607136062806768836
5265222 85 18410012182265859126
5758199 1 17095526184062516659
58260988 393 15864344706076605884
6081469 158 13758359951429979368
6086070 43 17489585722471333267
6328613 192 18412546522060406032
9689198 14 18113622274405151938

> <PUBCHEM_SHAPE_MULTIPOLES>
584.39
25.15
2.76
1.16
5.4
1.37
-0.18
-16.94
5.18
-0.05
0.26
-0.13
-0.65
0.31

> <PUBCHEM_SHAPE_SELFOVERLAP>
1245.613

> <PUBCHEM_SHAPE_VOLUME>
332.4

> <PUBCHEM_COORDINATE_TYPE>
2
5
10

$$$$
11236560
  -OEChem-11282412143D

 61 65  0     0  0  0  0  0  0999 V2000
   -9.7721    2.5375    0.3932 O   0  0  0  0  0  0  0  0  0  0  0  0
   -4.4227   -0.6068   -1.1695 O   0  0  0  0  0  0  0  0  0  0  0  0
    4.2562    0.8503   -1.7815 O   0  0  0  0  0  0  0  0  0  0  0  0
    1.3106   -0.8629    1.6380 O   0  0  0  0  0  0  0  0  0  0  0  0
    8.4030    1.1449   -0.8995 O   0  0  0  0  0  0  0  0  0  0  0  0
   -7.6128    0.7017    0.1303 N   0  0  0  0  0  0  0  0  0  0  0  0
   -0.7199   -3.5711   -0.7570 N   0  0  0  0  0  0  0  0  0  0  0  0
    7.6711    1.5707    1.2449 N   0  0  0  0  0  0  0  0  0  0  0  0
   -7.4669    2.1174   -0.2355 C   0  0  0  0  0  0  0  0  0  0  0  0
   -9.0084    0.2770   -0.0473 C   0  0  0  0  0  0  0  0  0  0  0  0
   -6.7115   -0.1340   -0.6602 C   0  0  0  0  0  0  0  0  0  0  0  0
   -8.4252    2.9676    0.5937 C   0  0  0  0  0  0  0  0  0  0  0  0
   -9.9308    1.1710    0.7766 C   0  0  0  0  0  0  0  0  0  0  0  0
   -5.2619    0.2401   -0.3953 C   0  0  0  0  0  0  0  0  0  0  0  0
   -3.1767   -0.8716   -0.6639 C   0  0  0  0  0  0  0  0  0  0  0  0
    5.0219    0.4689    0.3093 C   0  0  0  0  0  0  0  0  0  0  0  0
    3.9174    0.4161   -0.5349 C   0  0  0  0  0  0  0  0  0  0  0  0
    6.0900    0.9658   -0.4831 C   0  0  0  0  0  0  0  0  0  0  0  0
   -0.6500   -1.4315    0.3494 C   0  0  0  0  0  0  0  0  0  0  0  0
   -1.2945   -2.3902   -0.4602 C   0  0  0  0  0  0  0  0  0  0  0  0
   -2.5595   -2.0852   -0.9551 C   0  0  0  0  0  0  0  0  0  0  0  0
    5.5734    1.1803   -1.7399 C   0  0  0  0  0  0  0  0  0  0  0  0
   -2.5447    0.0698    0.1307 C   0  0  0  0  0  0  0  0  0  0  0  0
    0.6234   -1.7378    0.8479 C   0  0  0  0  0  0  0  0  0  0  0  0
    2.5390   -0.4187    1.1833 C   0  0  0  0  0  0  0  0  0  0  0  0
    2.6537   -0.0213   -0.1424 C   0  0  0  0  0  0  0  0  0  0  0  0
   -1.2792   -0.2089    0.6390 C   0  0  0  0  0  0  0  0  0  0  0  0
    4.8663    0.0586    1.6450 C   0  0  0  0  0  0  0  0  0  0  0  0
    3.6067   -0.3861    2.0694 C   0  0  0  0  0  0  0  0  0  0  0  0
    7.4488    1.2124   -0.0959 C   0  0  0  0  0  0  0  0  0  0  0  0
    6.1498    1.6791   -2.9980 C   0  0  0  0  0  0  0  0  0  0  0  0
    1.2179   -2.9540    0.5438 C   0  0  0  0  0  0  0  0  0  0  0  0
    0.5099   -3.8280   -0.2559 C   0  0  0  0  0  0  0  0  0  0  0  0
    8.9778    1.8786    1.7804 C   0  0  0  0  0  0  0  0  0  0  0  0
   -7.6768    2.2623   -1.3032 H   0  0  0  0  0  0  0  0  0  0  0  0
   -6.4655    2.5005   -0.0237 H   0  0  0  0  0  0  0  0  0  0  0  0
   -9.1351   -0.7613    0.2799 H   0  0  0  0  0  0  0  0  0  0  0  0
   -9.2924    0.3375   -1.1060 H   0  0  0  0  0  0  0  0  0  0  0  0
   -6.8476   -1.1907   -0.3954 H   0  0  0  0  0  0  0  0  0  0  0  0
   -6.9248   -0.0621   -1.7352 H   0  0  0  0  0  0  0  0  0  0  0  0
   -8.3614    4.0148    0.2806 H   0  0  0  0  0  0  0  0  0  0  0  0
   -8.1830    2.9260    1.6628 H   0  0  0  0  0  0  0  0  0  0  0  0
  -10.9749    0.8946    0.5979 H   0  0  0  0  0  0  0  0  0  0  0  0
   -9.7399    1.0680    1.8518 H   0  0  0  0  0  0  0  0  0  0  0  0
   -5.0368    1.2634   -0.7074 H   0  0  0  0  0  0  0  0  0  0  0  0
   -5.0706    0.1291    0.6805 H   0  0  0  0  0  0  0  0  0  0  0  0
   -3.0791   -2.8076   -1.5825 H   0  0  0  0  0  0  0  0  0  0  0  0
   -2.9791    1.0381    0.3575 H   0  0  0  0  0  0  0  0  0  0  0  0
    1.8282   -0.0223   -0.8435 H   0  0  0  0  0  0  0  0  0  0  0  0
   -0.7925    0.5426    1.2564 H   0  0  0  0  0  0  0  0  0  0  0  0
    5.6907    0.0534    2.3504 H   0  0  0  0  0  0  0  0  0  0  0  0
    3.4765   -0.7105    3.0986 H   0  0  0  0  0  0  0  0  0  0  0  0
    6.8356    0.9404   -3.4240 H   0  0  0  0  0  0  0  0  0  0  0  0
    6.7040    2.6077   -2.8295 H   0  0  0  0  0  0  0  0  0  0  0  0
    5.3723    1.8854   -3.7405 H   0  0  0  0  0  0  0  0  0  0  0  0
    2.1965   -3.2297    0.9210 H   0  0  0  0  0  0  0  0  0  0  0  0
    0.9230   -4.7946   -0.5247 H   0  0  0  0  0  0  0  0  0  0  0  0
    6.8792    1.7316    1.8573 H   0  0  0  0  0  0  0  0  0  0  0  0
    9.2124    2.9190    1.5420 H   0  0  0  0  0  0  0  0  0  0  0  0
    8.9514    1.7420    2.8637 H   0  0  0  0  0  0  0  0  0  0  0  0
    9.7310    1.2228    1.3367 H   0  0  0  0  0  0  0  0  0  0  0  0
  1 12  1  0  0  0  0
  1 13  1  0  0  0  0
  2 14  1  0  0  0  0
  2 15  1  0  0  0  0
  3 17  1  0  0  0  0
  3 22  1  0  0  0  0
  4 24  1  0  0  0  0
  4 25  1  0  0  0  0
  5 30  2  0  0  0  0
  6  9  1  0  0  0  0
  6 10  1  0  0  0  0
  6 11  1  0  0  0  0
  7 20  2  0  0  0  0
  7 33  1  0  0  0  0
  8 30  1  0  0  0  0
  8 34  1  0  0  0  0
  8 58  1  0  0  0  0
  9 12  1  0  0  0  0
  9 35  1  0  0  0  0
  9 36  1  0  0  0  0
 10 13  1  0  0  0  0
 10 37  1  0  0  0  0
 10 38  1  0  0  0  0
 11 14  1  0  0  0  0
 11 39  1  0  0  0  0
 11 40  1  0  0  0  0
 12 41  1  0  0  0  0
 12 42  1  0  0  0  0
 13 43  1  0  0  0  0
 13 44  1  0  0  0  0
 14 45  1  0  0  0  0
 14 46  1  0  0  0  0
 15 21  2  0  0  0  0
 15 23  1  0  0  0  0
 16 17  2  0  0  0  0
 16 18  1  0  0  0  0
 16 28  1  0  0  0  0
 17 26  1  0  0  0  0
 18 22  2  0  0  0  0
 18 30  1  0  0  0  0
 19 20  1  0  0  0  0
 19 24  2  0  0  0  0
 19 27  1  0  0  0  0
 20 21  1  0  0  0  0
 21 47  1  0  0  0  0
 22 31  1  0  0  0  0
 23 27  2  0  0  0  0
 23 48  1  0  0  0  0
 24 32  1  0  0  0  0
 25 26  2  0  0  0  0
 25 29  1  0  0  0  0
 26 49  1  0  0  0  0
 27 50  1  0  0  0  0
 28 29  2  0  0  0  0
 28 51  1  0  0  0  0
 29 52  1  0  0  0  0
 31 53  1  0  0  0  0
 31 54  1  0  0  0  0
 31 55  1  0  0  0  0
 32 33  2  0  0  0  0
 32 56  1  0  0  0  0
 33 57  1  0  0  0  0
 34 59  1  0  0  0  0
 34 60  1  0  0  0  0
 34 61  1  0  0  0  0
M  END
> <PUBCHEM_COMPOUND_CID>
11236560

> <PUBCHEM_CONFORMER_RMSD>
1

> <PUBCHEM_CONFORMER_DIVERSEORDER>
1
163
160
103
57
249
158
69
311
340
297
176
179
272
136
323
152
232
322
27
11
353
70
355
92
303
83
273
181
195
299
256
292
113
301
211
149
302
81
38
247
347
366
129
78
372
117
319
357
101
123
19
279
59
173
186
121
351
188
385
138
341
115
53
356
276
238
350
281
139
127
102
378
349
15
304
336
338
313
170
382
18
25
156
237
45
242
100
198
202
148
174
164
253
52
58
327
389
377
255
271
251
375
154
208
214
283
191
312
365
233
218
231
334
305
177
206
285
67
89
333
250
248
120
4
370
165
352
169
360
243
172
126
133
269
143
48
184
310
5
223
290
239
335
49
213
141
364
259
391
62
203
314
111
210
295
380
150
130
294
252
383
118
367
135
245
216
225
224
246
212
60
289
114
36
361
55
16
291
86
387
221
82
362
168
379
171
318
374
47
343
244
209
315
97
346
185
137
30
230
13
257
388
201
345
220
254
265
266
105
268
84
368
182
95
226
106
64
369
153
258
381
263
33
328
228
371
200
151
275
307
260
145
189
46
124
91
235
96
180
196
146
31
390
264
373
316
227
34
29
197
207
140
142
161
321
317
199
320
159
131
326
204
119
14
9
71
296
274
167
190
300
358
51
20
386
286
270
43
98
116
110
128
309
12
39
162
332
348
75
363
234
79
90
287
132
122
108
17
344
88
183
66
217
229
324
56
157
267
6
359
24
3
74
22
41
306
193
342
262
282
155
205
236
215
277
107
280
330
40
87
21
72
76
93
284
376
80
104
166
308
175
35
44
73
194
134
112
37
240
99
288
50
325
278
125
293
331
192
61
54
339
63
261
144
384
23
7
2
337
109
65
329
32
219
26
298
10
28
94
178
241
8
85
68
187
354
42
147
77
222

> <PUBCHEM_MMFF94_PARTIAL_CHARGES>
41
1 -0.56
10 0.27
11 0.27
12 0.28
13 0.28
14 0.28
15 0.08
17 0.14
18 -0.09
2 -0.36
20 0.31
21 -0.15
22 -0.04
23 -0.15
24 0.08
25 0.08
26 -0.15
27 -0.15
28 -0.15
29 -0.15
3 -0.28
30 0.72
31 0.18
32 -0.15
33 0.16
34 0.3
4 -0.17
47 0.15
48 0.15
49 0.15
5 -0.57
50 0.15
51 0.15
52 0.15
56 0.15
57 0.15
58 0.37
6 -0.81
7 -0.62
8 -0.73
9 0.27

> <PUBCHEM_EFFECTIVE_ROTOR_COUNT>
9.2

> <PUBCHEM_PHARMACOPHORE_FEATURES>
13
1 1 acceptor
1 2 acceptor
1 3 acceptor
1 4 acceptor
1 5 acceptor
1 6 cation
1 7 acceptor
1 8 donor
5 3 16 17 18 22 rings
6 1 6 9 10 12 13 rings
6 15 19 20 21 23 27 rings
6 16 17 25 26 28 29 rings
6 7 19 20 24 32 33 rings

> <PUBCHEM_HEAVY_ATOM_COUNT>
34

> <PUBCHEM_ATOM_DEF_STEREO_COUNT>
0

> <PUBCHEM_ATOM_UDEF_STEREO_COUNT>
0

> <PUBCHEM_BOND_DEF_STEREO_COUNT>
0

> <PUBCHEM_BOND_UDEF_STEREO_COUNT>
0

> <PUBCHEM_ISOTOPIC_ATOM_COUNT>
0

> <PUBCHEM_COMPONENT_COUNT>
1

> <PUBCHEM_CACTVS_TAUTO_COUNT>
2

> <PUBCHEM_CONFORMER_ID>
00AB74D000000001

> <PUBCHEM_MMFF94_ENERGY>
95.1326

> <PUBCHEM_FEATURE_SELFOVERLAP>
66.111

> <PUBCHEM_SHAPE_FINGERPRINT>
10190206 1 17275111596414088673
10533779 47 15647328589733175280
10904742 90 18411419509967978191
10906281 52 18333453128043069219
11115154 58 15195290828614248123
11386260 185 15769482201755163345
11443803 9 18410007732605550506
11456790 92 16153697726666572196
11534866 41 12901534725398477928
11621639 336 18197500627654544161
1200032 147 18333732403189487634
12098696 120 18412266121231655613
13782708 43 10447633705254489227
14114211 68 18341902861400609735
14294032 229 18410844482983388919
14849402 71 17822299007201505853
15183329 4 15554451790848073287
15392192 104 13190347859622714608
1577012 14 18409438202694165703
16728433 281 16844460336713819233
16992610 120 18410301324012245350
19302320 297 17313106384648363252
19304671 126 16917056785246800449
20505436 4 18335413582217555506
21360443 89 9511466602769014500
21781055 127 18271238336063432026
23528940 14 10159435189313539924
23559900 14 17702097179132617242
23729398 52 18123753054117019798
24180151 248 17985277270269602167
24771293 8 18259985964645981613
24771750 20 18059577915379465631
25269216 80 16844993716122576463
3418910 222 18335994086984093017
3711267 37 18343311374735580617
3918712 181 18343860000814703609
397830 11 16515682218044602047
3986486 107 16773804662428413353
4112364 45 15502955115209040079
4169191 19 18335698301154642813
44426699 302 18339920412467415074
44880568 143 17773588510911082276
45377200 153 15482088576376253709
474113 269 17060067996168978926
57303763 39 12252200567003486448
57527293 21 17967805030094333499
5911458 16 18260554420204767941
5937810 71 17274831208433765209
59682541 52 15195565710272352346
6438161 24 10159690279883163671
9962374 69 9079108969102843162

> <PUBCHEM_SHAPE_MULTIPOLES>
655.41
31.27
3.22
1.74
42.27
2.35
-0.43
-36.09
2.61
2.52
-0.27
-4.32
-0.65
-2.07

> <PUBCHEM_SHAPE_SELFOVERLAP>
1439.921

> <PUBCHEM_SHAPE_VOLUME>
355.2

> <PUBCHEM_COORDINATE_TYPE>
2
5
10

$$$$
89670174
  -OEChem-11282412143D

 52 58  0     1  0  0  0  0  0999 V2000
   -6.8164    3.2790    1.0662 F   0  0  0  0  0  0  0  0  0  0  0  0
   -6.9198    3.2705   -1.1000 F   0  0  0  0  0  0  0  0  0  0  0  0
   -8.4193    2.2071    0.0614 F   0  0  0  0  0  0  0  0  0  0  0  0
    0.0632   -4.2278    0.4310 O   0  0  0  0  0  0  0  0  0  0  0  0
    4.7274   -1.3077    0.1274 O   0  0  0  0  0  0  0  0  0  0  0  0
    5.6636    4.7991    1.5409 O   0  0  0  0  0  0  0  0  0  0  0  0
   -2.7911   -0.1091   -0.2038 N   0  0  0  0  0  0  0  0  0  0  0  0
   -3.7804   -2.0988   -0.1493 N   0  0  0  0  0  0  0  0  0  0  0  0
    5.2038    3.4682   -0.2732 N   0  0  0  0  0  0  0  0  0  0  0  0
    4.6512    2.1574   -2.1630 N   0  0  0  0  0  0  0  0  0  0  0  0
   -0.2175   -1.8209    0.7548 C   0  0  1  0  0  0  0  0  0  0  0  0
   -1.2874   -2.1608   -0.2705 C   0  0  1  0  0  0  0  0  0  0  0  0
   -0.9120   -3.1769    0.7860 C   0  0  1  0  0  0  0  0  0  0  0  0
    1.1984   -2.2038    0.5173 C   0  0  0  0  0  0  0  0  0  0  0  0
   -2.6296   -1.4667   -0.2077 C   0  0  0  0  0  0  0  0  0  0  0  0
    1.2924   -3.5919    0.3497 C   0  0  0  0  0  0  0  0  0  0  0  0
    2.3456   -1.4303    0.4445 C   0  0  0  0  0  0  0  0  0  0  0  0
    2.4879   -4.2393    0.1078 C   0  0  0  0  0  0  0  0  0  0  0  0
    3.5700   -2.0631    0.2041 C   0  0  0  0  0  0  0  0  0  0  0  0
   -4.1357    0.1523   -0.1389 C   0  0  0  0  0  0  0  0  0  0  0  0
   -4.7316   -1.1055   -0.1058 C   0  0  0  0  0  0  0  0  0  0  0  0
    3.6398   -3.4565    0.0371 C   0  0  0  0  0  0  0  0  0  0  0  0
   -4.8598    1.3445   -0.1072 C   0  0  0  0  0  0  0  0  0  0  0  0
   -6.1319   -1.1983   -0.0368 C   0  0  0  0  0  0  0  0  0  0  0  0
   -6.2525    1.2335   -0.0384 C   0  0  0  0  0  0  0  0  0  0  0  0
   -6.8792   -0.0143   -0.0037 C   0  0  0  0  0  0  0  0  0  0  0  0
    4.6855   -0.1590   -0.6041 C   0  0  0  0  0  0  0  0  0  0  0  0
    4.9489    1.0805   -0.0192 C   0  0  0  0  0  0  0  0  0  0  0  0
   -7.0832    2.4742   -0.0035 C   0  0  0  0  0  0  0  0  0  0  0  0
    5.3662    1.1979    1.4154 C   0  0  0  0  0  0  0  0  0  0  0  0
    4.3892   -0.2359   -1.9595 C   0  0  0  0  0  0  0  0  0  0  0  0
    4.9170    2.2099   -0.8363 C   0  0  0  0  0  0  0  0  0  0  0  0
    4.9651    2.5492    1.9857 C   0  0  0  0  0  0  0  0  0  0  0  0
    5.3447    3.7031    1.0801 C   0  0  0  0  0  0  0  0  0  0  0  0
    4.3876    0.9401   -2.6885 C   0  0  0  0  0  0  0  0  0  0  0  0
   -0.4547   -1.1247    1.5509 H   0  0  0  0  0  0  0  0  0  0  0  0
   -0.9536   -2.3627   -1.2841 H   0  0  0  0  0  0  0  0  0  0  0  0
   -1.6001   -3.3815    1.5969 H   0  0  0  0  0  0  0  0  0  0  0  0
    2.2734   -0.3572    0.5914 H   0  0  0  0  0  0  0  0  0  0  0  0
   -2.0521    0.5803   -0.2418 H   0  0  0  0  0  0  0  0  0  0  0  0
    2.5351   -5.3140   -0.0243 H   0  0  0  0  0  0  0  0  0  0  0  0
    4.5991   -3.9318   -0.1514 H   0  0  0  0  0  0  0  0  0  0  0  0
   -4.3631    2.3084   -0.1349 H   0  0  0  0  0  0  0  0  0  0  0  0
   -6.6281   -2.1632   -0.0095 H   0  0  0  0  0  0  0  0  0  0  0  0
   -7.9625   -0.0923    0.0495 H   0  0  0  0  0  0  0  0  0  0  0  0
    4.9117    0.4114    2.0279 H   0  0  0  0  0  0  0  0  0  0  0  0
    6.4552    1.0772    1.4683 H   0  0  0  0  0  0  0  0  0  0  0  0
    4.1861   -1.1813   -2.4508 H   0  0  0  0  0  0  0  0  0  0  0  0
    5.4379    2.6930    2.9634 H   0  0  0  0  0  0  0  0  0  0  0  0
    3.8781    2.5943    2.1282 H   0  0  0  0  0  0  0  0  0  0  0  0
    5.3115    4.2441   -0.9195 H   0  0  0  0  0  0  0  0  0  0  0  0
    4.1730    0.9340   -3.7521 H   0  0  0  0  0  0  0  0  0  0  0  0
  1 29  1  0  0  0  0
  2 29  1  0  0  0  0
  3 29  1  0  0  0  0
  4 13  1  0  0  0  0
  4 16  1  0  0  0  0
  5 19  1  0  0  0  0
  5 27  1  0  0  0  0
  6 34  2  0  0  0  0
  7 15  1  0  0  0  0
  7 20  1  0  0  0  0
  7 40  1  0  0  0  0
  8 15  2  0  0  0  0
  8 21  1  0  0  0  0
  9 32  1  0  0  0  0
  9 34  1  0  0  0  0
  9 51  1  0  0  0  0
 10 32  2  0  0  0  0
 10 35  1  0  0  0  0
 11 12  1  0  0  0  0
 11 13  1  0  0  0  0
 11 14  1  0  0  0  0
 11 36  1  0  0  0  0
 12 13  1  0  0  0  0
 12 15  1  0  0  0  0
 12 37  1  0  0  0  0
 13 38  1  0  0  0  0
 14 16  2  0  0  0  0
 14 17  1  0  0  0  0
 16 18  1  0  0  0  0
 17 19  2  0  0  0  0
 17 39  1  0  0  0  0
 18 22  2  0  0  0  0
 18 41  1  0  0  0  0
 19 22  1  0  0  0  0
 20 21  2  0  0  0  0
 20 23  1  0  0  0  0
 21 24  1  0  0  0  0
 22 42  1  0  0  0  0
 23 25  2  0  0  0  0
 23 43  1  0  0  0  0
 24 26  2  0  0  0  0
 24 44  1  0  0  0  0
 25 26  1  0  0  0  0
 25 29  1  0  0  0  0
 26 45  1  0  0  0  0
 27 28  2  0  0  0  0
 27 31  1  0  0  0  0
 28 30  1  0  0  0  0
 28 32  1  0  0  0  0
 30 33  1  0  0  0  0
 30 46  1  0  0  0  0
 30 47  1  0  0  0  0
 31 35  2  0  0  0  0
 31 48  1  0  0  0  0
 33 34  1  0  0  0  0
 33 49  1  0  0  0  0
 33 50  1  0  0  0  0
 35 52  1  0  0  0  0
M  END
> <PUBCHEM_COMPOUND_CID>
89670174

> <PUBCHEM_CONFORMER_RMSD>
0.8

> <PUBCHEM_CONFORMER_DIVERSEORDER>
1
16
44
73
50
67
28
61
10
27
53
71
33
69
6
65
55
62
51
30
52
8
63
47
70
31
60
66
72
54
22
43
68
3
15
23
18
49
58
9
56
48
25
34
39
14
12
20
42
13
29
26
38
57
46
5
2
59
40
24
11
4
7
45
64
17
41
21
35
37
32
19
36

> <PUBCHEM_MMFF94_PARTIAL_CHARGES>
48
1 -0.34
10 -0.62
11 -0.07
12 -0.01
13 0.05
14 -0.03
15 0.1
16 0.08
17 -0.15
18 -0.15
19 0.08
2 -0.34
20 -0.15
21 0.23
22 -0.15
23 -0.15
24 -0.15
25 -0.14
26 -0.15
27 0.08
28 -0.14
29 1.16
3 -0.34
30 0.14
31 -0.15
32 0.43
33 0.06
34 0.57
35 0.16
36 0.1
37 0.1
38 0.1
39 0.15
4 -0.23
40 0.27
41 0.15
42 0.15
43 0.15
44 0.15
45 0.15
48 0.15
5 -0.17
51 0.37
52 0.15
6 -0.57
7 0.03
8 -0.57
9 -0.55

> <PUBCHEM_EFFECTIVE_ROTOR_COUNT>
5

> <PUBCHEM_PHARMACOPHORE_FEATURES>
12
1 4 acceptor
1 5 acceptor
1 6 acceptor
1 7 donor
1 9 donor
3 7 8 15 cation
5 7 8 15 20 21 rings
6 10 27 28 31 32 35 rings
6 14 16 17 18 19 22 rings
6 20 21 23 24 25 26 rings
6 4 11 12 13 14 16 rings
6 9 28 30 32 33 34 rings

> <PUBCHEM_HEAVY_ATOM_COUNT>
35

> <PUBCHEM_ATOM_DEF_STEREO_COUNT>
3

> <PUBCHEM_ATOM_UDEF_STEREO_COUNT>
0

> <PUBCHEM_BOND_DEF_STEREO_COUNT>
0

> <PUBCHEM_BOND_UDEF_STEREO_COUNT>
0

> <PUBCHEM_ISOTOPIC_ATOM_COUNT>
0

> <PUBCHEM_COMPONENT_COUNT>
1

> <PUBCHEM_CACTVS_TAUTO_COUNT>
10

> <PUBCHEM_CONFORMER_ID>
0558421E00000001

> <PUBCHEM_MMFF94_ENERGY>
96.257

> <PUBCHEM_FEATURE_SELFOVERLAP>
61.067

> <PUBCHEM_SHAPE_FINGERPRINT>
10439779 11 18119523491188612412
10673678 19 18341615897424065819
10675989 125 18412261718900785680
10864689 126 18268718380309641460
11007060 377 18409172138935768067
11408170 253 17843126901300554905
11456790 92 17968939665595092946
11478447 147 15912185698152042384
11720765 8 18058463032601313414
11966995 178 18341060605924269469
1200032 147 17023764432553076172
12342043 65 11675690349656289560
12422481 6 17241027895409618382
12661589 4 8646488552880872144
12925494 130 18334017202702785707
13165053 371 18341322290156294042
13782708 43 11671777153244472035
13944108 23 18337116653425569166
14211702 104 9511454542200049869
14565420 104 18040714736652797251
14790565 3 18409732820576822187
15082195 135 18270683060794341339
15145343 34 18202277048674405913
15400415 2 18335139753158116811
15406563 185 18128559113962426012
15840311 113 18189059694958526767
15979999 66 17839472085784280974
16096371 109 16081354254988150266
19053607 189 18190182467755001620
19304671 126 17846788424780004720
20058555 10 18409729539527613709
20691028 202 18408884010721944647
20715895 44 18410852196749738714
21599406 157 16558752347235270013
22122407 14 18339934693037521331
23522609 53 17703803483761110291
23569914 2 16195624498116680032
24204213 163 18336815392247247754
27425 322 18340204099115030231
2748736 6 18335693979415002085
2838139 119 18412541037276789022
3525247 18 17912917576296177001
3711267 37 17916591921914247713
376196 1 18338799030918954186
3918712 181 18412819213961541105
4408954 64 16155651443381673088
44249763 50 17557980921045648330
44317340 157 18341336608691034991
508180 173 18193295022291648966
5109719 28 18340494485968414513
5219985 13 18339359794243073550
5223283 242 17413620266566492510
5372103 7 15911904232661610202
5951187 136 18272938232758539086
6176135 31 18188207718885759308
6677587 24 16773512282988940324
6695519 79 18123777449504667763
6898599 12 18272082829971750095
9849439 229 18264766730870876450

> <PUBCHEM_SHAPE_MULTIPOLES>
660.93
21.69
6.13
1.47
33.8
0.56
0.61
27.09
0.36
-5.04
-1.91
-3.26
1.26
1.28

> <PUBCHEM_SHAPE_SELFOVERLAP>
1504.541

> <PUBCHEM_SHAPE_VOLUME>
346.9

> <PUBCHEM_COORDINATE_TYPE>
2
5
10

$$$$
57379345
  -OEChem-11282412143D

 74 77  0     0  0  0  0  0  0999 V2000
    5.1401    2.9328   -0.8782 Cl  0  0  0  0  0  0  0  0  0  0  0  0
    4.7663   -1.6880    1.2564 S   0  0  0  0  0  0  0  0  0  0  0  0
   -3.1971    2.9592    0.3167 O   0  0  0  0  0  0  0  0  0  0  0  0
    5.2340   -2.9675    1.7674 O   0  0  0  0  0  0  0  0  0  0  0  0
    5.7242   -0.6509    0.9074 O   0  0  0  0  0  0  0  0  0  0  0  0
   -6.8801   -2.8899    0.5469 N   0  0  0  0  0  0  0  0  0  0  0  0
   -0.6584    2.6038   -0.8438 N   0  0  0  0  0  0  0  0  0  0  0  0
    3.4965    0.4121   -0.5459 N   0  0  0  0  0  0  0  0  0  0  0  0
    1.4052    1.5054   -0.6954 N   0  0  0  0  0  0  0  0  0  0  0  0
    1.2910    3.8920   -1.0088 N   0  0  0  0  0  0  0  0  0  0  0  0
   -4.3108   -1.7606   -0.2875 C   0  0  0  0  0  0  0  0  0  0  0  0
   -5.6074   -1.5326   -1.0824 C   0  0  0  0  0  0  0  0  0  0  0  0
   -4.6432   -2.0502    1.1856 C   0  0  0  0  0  0  0  0  0  0  0  0
   -6.5900   -2.6849   -0.8724 C   0  0  0  0  0  0  0  0  0  0  0  0
   -5.6639   -3.1821    1.3057 C   0  0  0  0  0  0  0  0  0  0  0  0
   -3.3326   -0.6120   -0.4416 C   0  0  0  0  0  0  0  0  0  0  0  0
   -2.0786   -0.8103   -1.0194 C   0  0  0  0  0  0  0  0  0  0  0  0
   -3.7020    0.6568    0.0049 C   0  0  0  0  0  0  0  0  0  0  0  0
   -2.8176    1.7274   -0.1268 C   0  0  0  0  0  0  0  0  0  0  0  0
   -1.1941    0.2603   -1.1510 C   0  0  0  0  0  0  0  0  0  0  0  0
   -1.5635    1.5292   -0.7048 C   0  0  0  0  0  0  0  0  0  0  0  0
   -1.6613   -2.1597   -1.5052 C   0  0  0  0  0  0  0  0  0  0  0  0
   -3.5148    3.0786    1.7018 C   0  0  0  0  0  0  0  0  0  0  0  0
    3.6489   -1.0206    2.4667 C   0  0  0  0  0  0  0  0  0  0  0  0
    0.7473    2.6704   -0.8498 C   0  0  0  0  0  0  0  0  0  0  0  0
    3.7590   -1.9776   -0.1465 C   0  0  0  0  0  0  0  0  0  0  0  0
   -2.5608    4.0699    2.3505 C   0  0  0  0  0  0  0  0  0  0  0  0
   -4.9660    3.5102    1.8474 C   0  0  0  0  0  0  0  0  0  0  0  0
    3.2341   -0.9230   -0.8932 C   0  0  0  0  0  0  0  0  0  0  0  0
    4.4001   -0.6754    3.7440 C   0  0  0  0  0  0  0  0  0  0  0  0
    2.5163   -2.0004    2.7354 C   0  0  0  0  0  0  0  0  0  0  0  0
    3.4837   -3.2955   -0.5112 C   0  0  0  0  0  0  0  0  0  0  0  0
    2.7507    1.6058   -0.7055 C   0  0  0  0  0  0  0  0  0  0  0  0
    2.4337   -1.1862   -2.0049 C   0  0  0  0  0  0  0  0  0  0  0  0
    2.6833   -3.5588   -1.6230 C   0  0  0  0  0  0  0  0  0  0  0  0
    2.1581   -2.5041   -2.3697 C   0  0  0  0  0  0  0  0  0  0  0  0
    3.4296    2.7972   -0.8604 C   0  0  0  0  0  0  0  0  0  0  0  0
    2.6400    3.9192   -1.0094 C   0  0  0  0  0  0  0  0  0  0  0  0
   -3.8779   -2.6862   -0.6809 H   0  0  0  0  0  0  0  0  0  0  0  0
   -6.0931   -0.5949   -0.7839 H   0  0  0  0  0  0  0  0  0  0  0  0
   -5.3797   -1.4387   -2.1516 H   0  0  0  0  0  0  0  0  0  0  0  0
   -3.7302   -2.3241    1.7289 H   0  0  0  0  0  0  0  0  0  0  0  0
   -5.0447   -1.1573    1.6817 H   0  0  0  0  0  0  0  0  0  0  0  0
   -7.5261   -2.4659   -1.3978 H   0  0  0  0  0  0  0  0  0  0  0  0
   -6.1943   -3.6094   -1.3098 H   0  0  0  0  0  0  0  0  0  0  0  0
   -5.2280   -4.1281    0.9624 H   0  0  0  0  0  0  0  0  0  0  0  0
   -5.9285   -3.3238    2.3593 H   0  0  0  0  0  0  0  0  0  0  0  0
   -7.3078   -2.0430    0.9221 H   0  0  0  0  0  0  0  0  0  0  0  0
   -4.6812    0.8186    0.4456 H   0  0  0  0  0  0  0  0  0  0  0  0
   -0.2489    0.0893   -1.6522 H   0  0  0  0  0  0  0  0  0  0  0  0
   -0.6703   -2.1303   -1.9658 H   0  0  0  0  0  0  0  0  0  0  0  0
   -2.3479   -2.5274   -2.2750 H   0  0  0  0  0  0  0  0  0  0  0  0
   -1.6078   -2.8725   -0.6760 H   0  0  0  0  0  0  0  0  0  0  0  0
   -1.0952    3.5205   -0.8194 H   0  0  0  0  0  0  0  0  0  0  0  0
   -3.3885    2.1200    2.2236 H   0  0  0  0  0  0  0  0  0  0  0  0
    3.2332   -0.0936    2.0610 H   0  0  0  0  0  0  0  0  0  0  0  0
   -2.6257    5.0498    1.8649 H   0  0  0  0  0  0  0  0  0  0  0  0
   -2.7751    4.1917    3.4166 H   0  0  0  0  0  0  0  0  0  0  0  0
   -1.5247    3.7322    2.2390 H   0  0  0  0  0  0  0  0  0  0  0  0
   -5.1398    4.4668    1.3420 H   0  0  0  0  0  0  0  0  0  0  0  0
   -5.2452    3.6164    2.9001 H   0  0  0  0  0  0  0  0  0  0  0  0
   -5.6402    2.7844    1.3818 H   0  0  0  0  0  0  0  0  0  0  0  0
    3.7258   -0.2318    4.4840 H   0  0  0  0  0  0  0  0  0  0  0  0
    5.2007    0.0457    3.5480 H   0  0  0  0  0  0  0  0  0  0  0  0
    4.8576   -1.5634    4.1935 H   0  0  0  0  0  0  0  0  0  0  0  0
    1.8488   -1.6090    3.5110 H   0  0  0  0  0  0  0  0  0  0  0  0
    1.9031   -2.1715    1.8458 H   0  0  0  0  0  0  0  0  0  0  0  0
    2.8887   -2.9714    3.0787 H   0  0  0  0  0  0  0  0  0  0  0  0
    3.8747   -4.1386    0.0505 H   0  0  0  0  0  0  0  0  0  0  0  0
    4.3398    0.5538    0.0007 H   0  0  0  0  0  0  0  0  0  0  0  0
    2.0290   -0.3847   -2.6169 H   0  0  0  0  0  0  0  0  0  0  0  0
    2.4691   -4.5847   -1.9078 H   0  0  0  0  0  0  0  0  0  0  0  0
    1.5405   -2.7095   -3.2391 H   0  0  0  0  0  0  0  0  0  0  0  0
    3.0712    4.9072   -1.1386 H   0  0  0  0  0  0  0  0  0  0  0  0
  1 37  1  0  0  0  0
  2  4  2  0  0  0  0
  2  5  2  0  0  0  0
  2 24  1  0  0  0  0
  2 26  1  0  0  0  0
  3 19  1  0  0  0  0
  3 23  1  0  0  0  0
  6 14  1  0  0  0  0
  6 15  1  0  0  0  0
  6 48  1  0  0  0  0
  7 21  1  0  0  0  0
  7 25  1  0  0  0  0
  7 54  1  0  0  0  0
  8 29  1  0  0  0  0
  8 33  1  0  0  0  0
  8 70  1  0  0  0  0
  9 25  1  0  0  0  0
  9 33  2  0  0  0  0
 10 25  2  0  0  0  0
 10 38  1  0  0  0  0
 11 12  1  0  0  0  0
 11 13  1  0  0  0  0
 11 16  1  0  0  0  0
 11 39  1  0  0  0  0
 12 14  1  0  0  0  0
 12 40  1  0  0  0  0
 12 41  1  0  0  0  0
 13 15  1  0  0  0  0
 13 42  1  0  0  0  0
 13 43  1  0  0  0  0
 14 44  1  0  0  0  0
 14 45  1  0  0  0  0
 15 46  1  0  0  0  0
 15 47  1  0  0  0  0
 16 17  1  0  0  0  0
 16 18  2  0  0  0  0
 17 20  2  0  0  0  0
 17 22  1  0  0  0  0
 18 19  1  0  0  0  0
 18 49  1  0  0  0  0
 19 21  2  0  0  0  0
 20 21  1  0  0  0  0
 20 50  1  0  0  0  0
 22 51  1  0  0  0  0
 22 52  1  0  0  0  0
 22 53  1  0  0  0  0
 23 27  1  0  0  0  0
 23 28  1  0  0  0  0
 23 55  1  0  0  0  0
 24 30  1  0  0  0  0
 24 31  1  0  0  0  0
 24 56  1  0  0  0  0
 26 29  1  0  0  0  0
 26 32  2  0  0  0  0
 27 57  1  0  0  0  0
 27 58  1  0  0  0  0
 27 59  1  0  0  0  0
 28 60  1  0  0  0  0
 28 61  1  0  0  0  0
 28 62  1  0  0  0  0
 29 34  2  0  0  0  0
 30 63  1  0  0  0  0
 30 64  1  0  0  0  0
 30 65  1  0  0  0  0
 31 66  1  0  0  0  0
 31 67  1  0  0  0  0
 31 68  1  0  0  0  0
 32 35  1  0  0  0  0
 32 69  1  0  0  0  0
 33 37  1  0  0  0  0
 34 36  1  0  0  0  0
 34 71  1  0  0  0  0
 35 36  2  0  0  0  0
 35 72  1  0  0  0  0
 36 73  1  0  0  0  0
 37 38  2  0  0  0  0
 38 74  1  0  0  0  0
M  END
> <PUBCHEM_COMPOUND_CID>
57379345

> <PUBCHEM_CONFORMER_RMSD>
1.2

> <PUBCHEM_CONFORMER_DIVERSEORDER>
3
19
33
20
8
62
17
40
61
37
16
39
22
28
29
70
74
42
31
21
58
23
66
72
68
46
50
32
64
13
7
35
30
36
34
44
26
73
24
45
56
43
48
52
69
27
53
51
59
4
11
71
41
10
1
65
5
55
38
67
54
12
63
25
9
6
2
60
15
47
57
18
49
14

> <PUBCHEM_MMFF94_PARTIAL_CHARGES>
42
1 -0.18
10 -0.62
11 0.14
14 0.27
15 0.27
16 -0.14
17 -0.14
18 -0.15
19 0.08
2 1.2
20 -0.15
21 0.1
22 0.14
23 0.28
24 0.11
25 0.72
26 -0.01
29 0.1
3 -0.36
32 -0.15
33 0.41
34 -0.15
35 -0.15
36 -0.15
37 0.18
38 0.16
4 -0.65
48 0.36
49 0.15
5 -0.65
50 0.15
54 0.4
6 -0.9
69 0.15
7 -0.6
70 0.4
71 0.15
72 0.15
73 0.15
74 0.15
8 -0.6
9 -0.62

> <PUBCHEM_EFFECTIVE_ROTOR_COUNT>
10.2

> <PUBCHEM_PHARMACOPHORE_FEATURES>
14
1 3 acceptor
1 4 acceptor
1 5 acceptor
1 6 cation
1 6 donor
1 7 donor
1 8 donor
3 23 27 28 hydrophobe
3 24 30 31 hydrophobe
4 7 9 10 25 cation
6 16 17 18 19 20 21 rings
6 26 29 32 34 35 36 rings
6 6 11 12 13 14 15 rings
6 9 10 25 33 37 38 rings

> <PUBCHEM_HEAVY_ATOM_COUNT>
38

> <PUBCHEM_ATOM_DEF_STEREO_COUNT>
0

> <PUBCHEM_ATOM_UDEF_STEREO_COUNT>
0

> <PUBCHEM_BOND_DEF_STEREO_COUNT>
0

> <PUBCHEM_BOND_UDEF_STEREO_COUNT>
0

> <PUBCHEM_ISOTOPIC_ATOM_COUNT>
0

> <PUBCHEM_COMPONENT_COUNT>
1

> <PUBCHEM_CACTVS_TAUTO_COUNT>
9

> <PUBCHEM_CONFORMER_ID>
036B8A1100000003

> <PUBCHEM_MMFF94_ENERGY>
113.1819

> <PUBCHEM_FEATURE_SELFOVERLAP>
71.063

> <PUBCHEM_SHAPE_FINGERPRINT>
10258939 38 17315619962529049821
10928967 22 17823991025744638723
11421498 54 18057623133422011872
12128747 34 16842467943632990568
12633257 1 18265052436105446476
12655387 17 17823961365629004677
12788726 201 18270405009291570113
13560911 23 18334573516652004355
14705955 166 17988069011475534707
15347590 135 18126845130291168920
15721738 202 18271535281148020578
17492 89 18341342132018646791
17974551 9 16483312432139657864
19301679 30 18340501062186122339
19315092 285 18187353381064800945
19319366 153 17834115625277382581
1979834 28 18131069367764869246
21033648 29 17559941135445270722
21703447 108 18262229044859033981
345986 75 18270119136368698633
3886686 26 17982460299909606693
4461854 278 18200598115641031510
50009960 94 17751335456295828875
513532 50 13407066029421446910

> <PUBCHEM_SHAPE_MULTIPOLES>
745.23
14.66
6.17
2.64
12.13
3.93
-2.39
-9.69
-5.15
1.63
-0.26
-2.77
-0.72
-3.63

> <PUBCHEM_SHAPE_SELFOVERLAP>
1559.027

> <PUBCHEM_SHAPE_VOLUME>
424.8

> <PUBCHEM_COORDINATE_TYPE>
2
5
10

$$$$
11617559
  -OEChem-11282412143D

 49 51  0     0  0  0  0  0  0999 V2000
   -1.7216    0.6774    0.4239 O   0  0  0  0  0  0  0  0  0  0  0  0
   -0.6390   -1.8006   -0.2176 O   0  0  0  0  0  0  0  0  0  0  0  0
   -7.8560   -0.5420    0.6986 O   0  0  0  0  0  0  0  0  0  0  0  0
    5.9758   -1.1417    0.6902 N   0  0  0  0  0  0  0  0  0  0  0  0
    6.1323    1.2621    0.7576 N   0  0  0  0  0  0  0  0  0  0  0  0
    4.4200   -2.1978   -0.7548 N   0  0  0  0  0  0  0  0  0  0  0  0
    7.5069   -0.0733    2.1114 N   0  0  0  0  0  0  0  0  0  0  0  0
    2.1056    0.4207   -1.1645 C   0  0  0  0  0  0  0  0  0  0  0  0
    3.4806    0.3328   -1.7352 C   0  0  0  0  0  0  0  0  0  0  0  0
    1.3634   -0.7411   -0.9523 C   0  0  0  0  0  0  0  0  0  0  0  0
    4.5716    0.1956   -0.6923 C   0  0  0  0  0  0  0  0  0  0  0  0
   -0.4595    0.5838   -0.1007 C   0  0  0  0  0  0  0  0  0  0  0  0
    1.5617    1.6644   -0.8432 C   0  0  0  0  0  0  0  0  0  0  0  0
    0.0772   -0.6593   -0.4188 C   0  0  0  0  0  0  0  0  0  0  0  0
    0.2755    1.7461   -0.3099 C   0  0  0  0  0  0  0  0  0  0  0  0
   -2.6700    1.4332   -0.3195 C   0  0  0  0  0  0  0  0  0  0  0  0
   -4.0405    0.9106   -0.0505 C   0  0  0  0  0  0  0  0  0  0  0  0
    5.0051   -1.0154   -0.2384 C   0  0  0  0  0  0  0  0  0  0  0  0
    5.1567    1.3146   -0.1730 C   0  0  0  0  0  0  0  0  0  0  0  0
   -4.7930    1.4356    1.0001 C   0  0  0  0  0  0  0  0  0  0  0  0
   -4.5704   -0.1024   -0.8496 C   0  0  0  0  0  0  0  0  0  0  0  0
   -6.0753    0.9476    1.2515 C   0  0  0  0  0  0  0  0  0  0  0  0
   -5.8527   -0.5904   -0.5982 C   0  0  0  0  0  0  0  0  0  0  0  0
   -6.6050   -0.0655    0.4525 C   0  0  0  0  0  0  0  0  0  0  0  0
    6.4880    0.0203    1.1384 C   0  0  0  0  0  0  0  0  0  0  0  0
   -0.5010   -2.4371    1.0512 C   0  0  0  0  0  0  0  0  0  0  0  0
   -8.3362   -1.5780   -0.1569 C   0  0  0  0  0  0  0  0  0  0  0  0
    3.6805    1.2363   -2.3301 H   0  0  0  0  0  0  0  0  0  0  0  0
    3.5357   -0.4635   -2.4869 H   0  0  0  0  0  0  0  0  0  0  0  0
    1.7688   -1.7147   -1.2120 H   0  0  0  0  0  0  0  0  0  0  0  0
    2.1290    2.5777   -1.0015 H   0  0  0  0  0  0  0  0  0  0  0  0
   -0.1322    2.7204   -0.0559 H   0  0  0  0  0  0  0  0  0  0  0  0
   -2.4610    1.3850   -1.3971 H   0  0  0  0  0  0  0  0  0  0  0  0
   -2.6011    2.4877   -0.0248 H   0  0  0  0  0  0  0  0  0  0  0  0
    4.8719    2.3155   -0.4784 H   0  0  0  0  0  0  0  0  0  0  0  0
   -4.3908    2.2236    1.6313 H   0  0  0  0  0  0  0  0  0  0  0  0
   -3.9919   -0.5207   -1.6692 H   0  0  0  0  0  0  0  0  0  0  0  0
   -6.6565    1.3600    2.0718 H   0  0  0  0  0  0  0  0  0  0  0  0
   -6.2024   -1.3781   -1.2568 H   0  0  0  0  0  0  0  0  0  0  0  0
    4.1462   -2.2249   -1.7279 H   0  0  0  0  0  0  0  0  0  0  0  0
    4.7622   -3.0660   -0.3594 H   0  0  0  0  0  0  0  0  0  0  0  0
   -0.8269   -1.7691    1.8547 H   0  0  0  0  0  0  0  0  0  0  0  0
    0.5368   -2.7444    1.2150 H   0  0  0  0  0  0  0  0  0  0  0  0
   -1.1351   -3.3278    1.0584 H   0  0  0  0  0  0  0  0  0  0  0  0
    7.9231    0.7714    2.4780 H   0  0  0  0  0  0  0  0  0  0  0  0
    7.8087   -0.9841    2.4288 H   0  0  0  0  0  0  0  0  0  0  0  0
   -9.3451   -1.8354    0.1820 H   0  0  0  0  0  0  0  0  0  0  0  0
   -8.4249   -1.2352   -1.1934 H   0  0  0  0  0  0  0  0  0  0  0  0
   -7.7287   -2.4853   -0.0703 H   0  0  0  0  0  0  0  0  0  0  0  0
  1 12  1  0  0  0  0
  1 16  1  0  0  0  0
  2 14  1  0  0  0  0
  2 26  1  0  0  0  0
  3 24  1  0  0  0  0
  3 27  1  0  0  0  0
  4 18  2  0  0  0  0
  4 25  1  0  0  0  0
  5 19  1  0  0  0  0
  5 25  2  0  0  0  0
  6 18  1  0  0  0  0
  6 40  1  0  0  0  0
  6 41  1  0  0  0  0
  7 25  1  0  0  0  0
  7 45  1  0  0  0  0
  7 46  1  0  0  0  0
  8  9  1  0  0  0  0
  8 10  2  0  0  0  0
  8 13  1  0  0  0  0
  9 11  1  0  0  0  0
  9 28  1  0  0  0  0
  9 29  1  0  0  0  0
 10 14  1  0  0  0  0
 10 30  1  0  0  0  0
 11 18  1  0  0  0  0
 11 19  2  0  0  0  0
 12 14  2  0  0  0  0
 12 15  1  0  0  0  0
 13 15  2  0  0  0  0
 13 31  1  0  0  0  0
 15 32  1  0  0  0  0
 16 17  1  0  0  0  0
 16 33  1  0  0  0  0
 16 34  1  0  0  0  0
 17 20  2  0  0  0  0
 17 21  1  0  0  0  0
 19 35  1  0  0  0  0
 20 22  1  0  0  0  0
 20 36  1  0  0  0  0
 21 23  2  0  0  0  0
 21 37  1  0  0  0  0
 22 24  2  0  0  0  0
 22 38  1  0  0  0  0
 23 24  1  0  0  0  0
 23 39  1  0  0  0  0
 26 42  1  0  0  0  0
 26 43  1  0  0  0  0
 26 44  1  0  0  0  0
 27 47  1  0  0  0  0
 27 48  1  0  0  0  0
 27 49  1  0  0  0  0
M  END
> <PUBCHEM_COMPOUND_CID>
11617559

> <PUBCHEM_CONFORMER_RMSD>
1

> <PUBCHEM_CONFORMER_DIVERSEORDER>
1
460
524
14
475
60
469
463
116
358
517
339
73
157
587
430
199
7
160
601
98
142
37
507
381
38
361
534
90
22
15
464
449
44
619
59
335
423
189
386
122
198
626
235
184
305
327
473
244
597
395
389
166
334
265
281
440
219
613
2
390
33
341
323
480
156
450
575
88
84
523
336
492
308
188
293
621
444
132
92
165
40
186
200
30
627
261
171
321
3
129
205
422
202
273
190
25
49
284
253
152
625
251
182
622
298
51
106
438
187
148
399
586
465
168
5
352
87
593
180
312
491
109
291
416
54
208
35
103
154
11
136
45
58
76
36
61
31
536
48
496
127
66
203
113
32
47
20
28
4
12
197
13

> <PUBCHEM_MMFF94_PARTIAL_CHARGES>
39
1 -0.36
10 -0.15
11 -0.14
12 0.08
13 -0.15
14 0.08
15 -0.15
16 0.42
17 -0.14
18 0.41
19 0.16
2 -0.36
20 -0.15
21 -0.15
22 -0.15
23 -0.15
24 0.08
25 0.72
26 0.28
27 0.28
3 -0.36
30 0.15
31 0.15
32 0.15
35 0.15
36 0.15
37 0.15
38 0.15
39 0.15
4 -0.62
40 0.4
41 0.4
45 0.4
46 0.4
5 -0.62
6 -0.9
7 -0.9
8 -0.14
9 0.29

> <PUBCHEM_EFFECTIVE_ROTOR_COUNT>
7

> <PUBCHEM_PHARMACOPHORE_FEATURES>
9
1 1 acceptor
1 2 acceptor
1 3 acceptor
1 6 donor
1 7 donor
4 4 5 7 25 cation
6 17 20 21 22 23 24 rings
6 4 5 11 18 19 25 rings
6 8 10 12 13 14 15 rings

> <PUBCHEM_HEAVY_ATOM_COUNT>
27

> <PUBCHEM_ATOM_DEF_STEREO_COUNT>
0

> <PUBCHEM_ATOM_UDEF_STEREO_COUNT>
0

> <PUBCHEM_BOND_DEF_STEREO_COUNT>
0

> <PUBCHEM_BOND_UDEF_STEREO_COUNT>
0

> <PUBCHEM_ISOTOPIC_ATOM_COUNT>
0

> <PUBCHEM_COMPONENT_COUNT>
1

> <PUBCHEM_CACTVS_TAUTO_COUNT>
9

> <PUBCHEM_CONFORMER_ID>
00B1451700000001

> <PUBCHEM_MMFF94_ENERGY>
113.3472

> <PUBCHEM_FEATURE_SELFOVERLAP>
45.675

> <PUBCHEM_SHAPE_FINGERPRINT>
10 15 16774079574858268565
10533779 47 17560806473204507630
106641 1 18341890814481139536
11135926 11 18187642497669831535
11578080 2 17058636589782718130
11719270 70 18260551108584398771
11991303 11 15936705864456688435
12166972 35 14273749464260830085
12236239 1 18202009794160007173
12838862 33 18343292653600059309
13073987 5 18059296461370298165
13533116 47 18270123410014197358
13692114 37 18339077202654253675
13782708 43 16298682671542347513
13862211 1 18259989258005202085
13914758 101 16225760797146076501
14251764 18 18408324401942031812
14461889 52 17988927790144080142
14849402 71 17917429894875274433
15064981 113 13840529801707312731
15183329 4 18187092758080667087
15706992 2 15984822692416481024
15849732 13 17168141256465958044
16994733 274 16558755585308392811
190975 80 18272369789061956233
20028762 73 18412269423998670863
2026 5 16660636315526657987
20567600 234 18343862234497961648
20567600 75 15285355094008679999
21130935 74 18059300855433448831
21521721 280 15195569004707492935
221357 26 8862944992342097606
22149856 69 18059031501027923339
22224240 67 16702302356475243653
23081809 10 17895489050190564029
23522609 53 18048917115098079005
23559900 14 18339660979467492046
23569917 315 18335428945299950242
23569943 247 17697060053529583030
29717793 49 12179849402954272612
3178227 256 18334870432811435105
3383291 50 18113902653938999291
34797466 226 15769783459172091612
3663271 9 17917715664960763435
4340502 62 18272367556122048214
5104073 3 18057890147243492512
58260988 393 15913058572887065107
59682541 35 17846213388392356698
59682541 52 13479129090615151960
59755656 215 13479127991034881065
6081469 158 17240480339162285279
6328613 192 9007051370923324855
6394761 36 13623524658703869203
70251023 43 14906801981662595620

> <PUBCHEM_SHAPE_MULTIPOLES>
518.12
22.32
1.93
1.32
13.51
0.6
0.22
3.91
7.72
-0.02
0.09
-1.44
-0.01
-0.61

> <PUBCHEM_SHAPE_SELFOVERLAP>
1115.596

> <PUBCHEM_SHAPE_VOLUME>
284.1

> <PUBCHEM_COORDINATE_TYPE>
2
5
10

$$$$
25031915
  -OEChem-11282412143D

 58 62  0     0  0  0  0  0  0999 V2000
   -5.1548   -0.8500   -0.3719 O   0  0  0  0  0  0  0  0  0  0  0  0
   -3.5067   -1.4028    1.7965 O   0  0  0  0  0  0  0  0  0  0  0  0
    0.6264    1.4800    1.1089 O   0  0  0  0  0  0  0  0  0  0  0  0
    5.5871   -1.4604   -2.2262 O   0  0  0  0  0  0  0  0  0  0  0  0
   -7.3577   -1.0739    1.5810 N   0  0  0  0  0  0  0  0  0  0  0  0
   -1.9457    2.2115   -2.0866 N   0  0  0  0  0  0  0  0  0  0  0  0
    6.5557   -2.7201   -0.5376 N   0  0  0  0  0  0  0  0  0  0  0  0
   -7.4757   -0.7470    0.1544 C   0  0  0  0  0  0  0  0  0  0  0  0
   -8.8269   -0.4090   -0.4040 C   0  0  0  0  0  0  0  0  0  0  0  0
   -8.1737   -1.7131   -0.7571 C   0  0  0  0  0  0  0  0  0  0  0  0
   -6.3073   -0.0106   -0.4049 C   0  0  0  0  0  0  0  0  0  0  0  0
   -3.9452   -0.2362   -0.2445 C   0  0  0  0  0  0  0  0  0  0  0  0
   -3.1222   -0.5134    0.8399 C   0  0  0  0  0  0  0  0  0  0  0  0
   -3.5356    0.6798   -1.2166 C   0  0  0  0  0  0  0  0  0  0  0  0
   -2.3097    1.3343   -1.1322 C   0  0  0  0  0  0  0  0  0  0  0  0
   -1.8910    0.1266    0.9493 C   0  0  0  0  0  0  0  0  0  0  0  0
   -1.4793    1.0479   -0.0285 C   0  0  0  0  0  0  0  0  0  0  0  0
   -0.2451    1.7065    0.0570 C   0  0  0  0  0  0  0  0  0  0  0  0
    0.1327    2.6109   -0.9249 C   0  0  0  0  0  0  0  0  0  0  0  0
   -0.7464    2.8258   -1.9669 C   0  0  0  0  0  0  0  0  0  0  0  0
   -3.1434   -2.7678    1.5968 C   0  0  0  0  0  0  0  0  0  0  0  0
    1.8639    0.9969    0.8123 C   0  0  0  0  0  0  0  0  0  0  0  0
    4.4176    0.0018    0.1987 C   0  0  0  0  0  0  0  0  0  0  0  0
    4.2759    1.0646    1.1224 C   0  0  0  0  0  0  0  0  0  0  0  0
    2.9919    1.5507    1.4183 C   0  0  0  0  0  0  0  0  0  0  0  0
    5.7015   -0.4842   -0.0972 C   0  0  0  0  0  0  0  0  0  0  0  0
    2.0033   -0.0482   -0.0962 C   0  0  0  0  0  0  0  0  0  0  0  0
    3.2712   -0.5435   -0.4019 C   0  0  0  0  0  0  0  0  0  0  0  0
    5.4222    1.6101    1.7229 C   0  0  0  0  0  0  0  0  0  0  0  0
    6.8295    0.0697    0.5089 C   0  0  0  0  0  0  0  0  0  0  0  0
    6.6902    1.1148    1.4172 C   0  0  0  0  0  0  0  0  0  0  0  0
    5.9278   -1.5771   -1.0387 C   0  0  0  0  0  0  0  0  0  0  0  0
    6.8695   -3.8745   -1.3485 C   0  0  0  0  0  0  0  0  0  0  0  0
   -9.6874   -0.4418    0.2543 H   0  0  0  0  0  0  0  0  0  0  0  0
   -8.9018    0.3425   -1.1812 H   0  0  0  0  0  0  0  0  0  0  0  0
   -7.8088   -1.8344   -1.7703 H   0  0  0  0  0  0  0  0  0  0  0  0
   -8.5972   -2.6169   -0.3344 H   0  0  0  0  0  0  0  0  0  0  0  0
   -6.1415    0.9045    0.1803 H   0  0  0  0  0  0  0  0  0  0  0  0
   -6.4817    0.2894   -1.4459 H   0  0  0  0  0  0  0  0  0  0  0  0
   -6.5711   -1.7047    1.7319 H   0  0  0  0  0  0  0  0  0  0  0  0
   -8.1836   -1.5713    1.9124 H   0  0  0  0  0  0  0  0  0  0  0  0
   -4.1832    0.8837   -2.0679 H   0  0  0  0  0  0  0  0  0  0  0  0
   -1.2572   -0.0992    1.8044 H   0  0  0  0  0  0  0  0  0  0  0  0
    1.0749    3.1463   -0.8854 H   0  0  0  0  0  0  0  0  0  0  0  0
   -0.5061    3.5236   -2.7622 H   0  0  0  0  0  0  0  0  0  0  0  0
   -3.5907   -3.1544    0.6756 H   0  0  0  0  0  0  0  0  0  0  0  0
   -2.0545   -2.8732    1.5595 H   0  0  0  0  0  0  0  0  0  0  0  0
   -3.5229   -3.3501    2.4409 H   0  0  0  0  0  0  0  0  0  0  0  0
    2.8655    2.3681    2.1261 H   0  0  0  0  0  0  0  0  0  0  0  0
    1.1414   -0.5129   -0.5671 H   0  0  0  0  0  0  0  0  0  0  0  0
    3.3254   -1.3713   -1.1036 H   0  0  0  0  0  0  0  0  0  0  0  0
    5.3371    2.4279    2.4356 H   0  0  0  0  0  0  0  0  0  0  0  0
    7.8270   -0.2974    0.2797 H   0  0  0  0  0  0  0  0  0  0  0  0
    7.5687    1.5467    1.8877 H   0  0  0  0  0  0  0  0  0  0  0  0
    6.7838   -2.7643    0.4515 H   0  0  0  0  0  0  0  0  0  0  0  0
    6.0349   -4.5768   -1.2823 H   0  0  0  0  0  0  0  0  0  0  0  0
    7.7746   -4.3402   -0.9522 H   0  0  0  0  0  0  0  0  0  0  0  0
    7.0231   -3.5832   -2.3905 H   0  0  0  0  0  0  0  0  0  0  0  0
  1 11  1  0  0  0  0
  1 12  1  0  0  0  0
  2 13  1  0  0  0  0
  2 21  1  0  0  0  0
  3 18  1  0  0  0  0
  3 22  1  0  0  0  0
  4 32  2  0  0  0  0
  5  8  1  0  0  0  0
  5 40  1  0  0  0  0
  5 41  1  0  0  0  0
  6 15  2  0  0  0  0
  6 20  1  0  0  0  0
  7 32  1  0  0  0  0
  7 33  1  0  0  0  0
  7 55  1  0  0  0  0
  8  9  1  0  0  0  0
  8 10  1  0  0  0  0
  8 11  1  0  0  0  0
  9 10  1  0  0  0  0
  9 34  1  0  0  0  0
  9 35  1  0  0  0  0
 10 36  1  0  0  0  0
 10 37  1  0  0  0  0
 11 38  1  0  0  0  0
 11 39  1  0  0  0  0
 12 13  1  0  0  0  0
 12 14  2  0  0  0  0
 13 16  2  0  0  0  0
 14 15  1  0  0  0  0
 14 42  1  0  0  0  0
 15 17  1  0  0  0  0
 16 17  1  0  0  0  0
 16 43  1  0  0  0  0
 17 18  2  0  0  0  0
 18 19  1  0  0  0  0
 19 20  2  0  0  0  0
 19 44  1  0  0  0  0
 20 45  1  0  0  0  0
 21 46  1  0  0  0  0
 21 47  1  0  0  0  0
 21 48  1  0  0  0  0
 22 25  2  0  0  0  0
 22 27  1  0  0  0  0
 23 24  2  0  0  0  0
 23 26  1  0  0  0  0
 23 28  1  0  0  0  0
 24 25  1  0  0  0  0
 24 29  1  0  0  0  0
 25 49  1  0  0  0  0
 26 30  2  0  0  0  0
 26 32  1  0  0  0  0
 27 28  2  0  0  0  0
 27 50  1  0  0  0  0
 28 51  1  0  0  0  0
 29 31  2  0  0  0  0
 29 52  1  0  0  0  0
 30 31  1  0  0  0  0
 30 53  1  0  0  0  0
 31 54  1  0  0  0  0
 33 56  1  0  0  0  0
 33 57  1  0  0  0  0
 33 58  1  0  0  0  0
M  END
> <PUBCHEM_COMPOUND_CID>
25031915

> <PUBCHEM_CONFORMER_RMSD>
1

> <PUBCHEM_CONFORMER_DIVERSEORDER>
3
27
126
108
114
98
43
75
92
106
87
116
30
31
47
51
72
85
124
111
89
41
101
104
120
83
84
107
24
78
35
115
125
117
39
59
76
67
97
32
110
68
113
100
25
55
26
44
112
8
123
64
34
21
96
66
74
122
45
93
1
109
103
60
118
14
128
28
18
23
37
71
36
50
42
29
81
53
12
95
88
99
70
121
86
33
61
54
90
127
2
63
102
15
69
73
62
80
65
48
57
119
20
49
7
38
13
40
16
5
22
105
56
91
11
17
77
52
19
79
4
6
94
82
10
58
46
9

> <PUBCHEM_MMFF94_PARTIAL_CHARGES>
47
1 -0.36
10 -0.2
11 0.38
12 0.08
13 0.08
14 -0.15
15 0.31
16 -0.15
18 0.08
19 -0.15
2 -0.36
20 0.16
21 0.28
22 0.08
25 -0.15
26 0.09
27 -0.15
28 -0.15
29 -0.15
3 -0.17
30 -0.15
31 -0.15
32 0.54
33 0.3
34 0.1
35 0.1
36 0.1
37 0.1
4 -0.57
40 0.36
41 0.36
42 0.15
43 0.15
44 0.15
45 0.15
49 0.15
5 -0.88
50 0.15
51 0.15
52 0.15
53 0.15
54 0.15
55 0.37
6 -0.62
7 -0.73
8 0.06
9 -0.2

> <PUBCHEM_EFFECTIVE_ROTOR_COUNT>
8.6

> <PUBCHEM_PHARMACOPHORE_FEATURES>
12
1 1 acceptor
1 2 acceptor
1 3 acceptor
1 4 acceptor
1 5 cation
1 5 donor
1 6 acceptor
1 7 donor
6 12 13 14 15 16 17 rings
6 22 23 24 25 27 28 rings
6 23 24 26 29 30 31 rings
6 6 15 17 18 19 20 rings

> <PUBCHEM_HEAVY_ATOM_COUNT>
33

> <PUBCHEM_ATOM_DEF_STEREO_COUNT>
0

> <PUBCHEM_ATOM_UDEF_STEREO_COUNT>
0

> <PUBCHEM_BOND_DEF_STEREO_COUNT>
0

> <PUBCHEM_BOND_UDEF_STEREO_COUNT>
0

> <PUBCHEM_ISOTOPIC_ATOM_COUNT>
0

> <PUBCHEM_COMPONENT_COUNT>
1

> <PUBCHEM_CACTVS_TAUTO_COUNT>
2

> <PUBCHEM_CONFORMER_ID>
017DF4EB00000003

> <PUBCHEM_MMFF94_ENERGY>
131.3379

> <PUBCHEM_FEATURE_SELFOVERLAP>
60.96

> <PUBCHEM_SHAPE_FINGERPRINT>
10 15 13758354500710006658
10076449 9 17095520713065770621
10533779 47 18272380784932913995
11331351 85 18412823612403677965
12133447 93 18041273267469473077
12236239 1 15913042166017516072
13617811 41 17603303747993188164
13673619 4 18412826871671555308
13685833 64 18343300379407513073
13782708 43 18340201887158425150
14117953 113 18113333129155258743
14216079 64 18342175557505923711
14294032 229 16951959558412402341
15064986 266 18338241470420943276
15131766 46 16483292992775591257
15183329 4 15864069862555598039
15198563 99 17604138234823361069
15301273 46 18412821378925108205
16087824 20 17531512206781201477
16728300 4 16414925110482511340
18335252 98 18412260632674719756
19301679 30 17274831207684346880
19315958 150 18200311142524926153
19841028 212 17989487415961872774
2026 5 18265894645376571150
21033650 10 17315080953129387668
21267235 1 17676763254265394921
21307412 95 18187372038851796539
21344244 181 18410013226091170746
21362857 166 17168418269309999258
22393880 68 18117554029919216830
23559900 14 17823130292819136156
23569917 315 18337394972309458879
23569943 247 18270966713663135187
23576562 1 16806172215425144071
3004659 81 17167580518267966765
335352 9 17676478498160010263
3383291 50 18187083992706849403
34797466 226 18186518830708113612
437815 12 18335984246649008849
5104073 3 17274256137849947728
59755656 215 18113897147843536498
6081469 158 18335419041542241375
86090 222 18343310253896698374
9663363 56 17895181243064604329

> <PUBCHEM_SHAPE_MULTIPOLES>
640.7
23.96
2.98
1.79
17.86
1.53
-0.18
17.07
-0.3
-3.78
-1.17
-0.71
-0.16
4.7

> <PUBCHEM_SHAPE_SELFOVERLAP>
1416.487

> <PUBCHEM_SHAPE_VOLUME>
344.9

> <PUBCHEM_COORDINATE_TYPE>
2
5
10

$$$$
49787172
  -OEChem-11282412143D

 52 56  0     1  0  0  0  0  0999 V2000
   -7.6073    2.4684    0.4846 Cl  0  0  0  0  0  0  0  0  0  0  0  0
    8.0669    2.1922   -0.4794 Cl  0  0  0  0  0  0  0  0  0  0  0  0
    2.3297    0.7904   -0.3155 O   0  0  0  0  0  0  0  0  0  0  0  0
    2.2614    1.6669    1.8259 O   0  0  0  0  0  0  0  0  0  0  0  0
    0.7259   -5.5265   -0.0590 O   0  0  0  0  0  0  0  0  0  0  0  0
    0.3294    0.7745    0.8725 N   0  0  0  0  0  0  0  0  0  0  0  0
   -2.6317   -0.0329   -1.2954 N   0  0  0  0  0  0  0  0  0  0  0  0
   -0.3039    0.0470   -0.2746 C   0  0  2  0  0  0  0  0  0  0  0  0
   -1.7619    0.3871   -0.3271 C   0  0  0  0  0  0  0  0  0  0  0  0
   -2.4575    1.1788    0.5622 C   0  0  0  0  0  0  0  0  0  0  0  0
   -1.7840    1.8189    1.7217 C   0  0  0  0  0  0  0  0  0  0  0  0
   -0.4941    1.0610    2.0692 C   0  0  0  0  0  0  0  0  0  0  0  0
   -3.8099    1.2328    0.1267 C   0  0  0  0  0  0  0  0  0  0  0  0
   -3.8921    0.4620   -1.0378 C   0  0  0  0  0  0  0  0  0  0  0  0
   -0.0279   -1.4478   -0.2173 C   0  0  0  0  0  0  0  0  0  0  0  0
    1.6889    1.1266    0.8803 C   0  0  0  0  0  0  0  0  0  0  0  0
   -4.9761    1.8642    0.6040 C   0  0  0  0  0  0  0  0  0  0  0  0
   -5.0876    0.2899   -1.7447 C   0  0  0  0  0  0  0  0  0  0  0  0
    0.6990   -2.0630   -1.2367 C   0  0  0  0  0  0  0  0  0  0  0  0
   -0.5015   -2.2035    0.8552 C   0  0  0  0  0  0  0  0  0  0  0  0
   -6.1777    1.7002   -0.0943 C   0  0  0  0  0  0  0  0  0  0  0  0
   -6.2305    0.9241   -1.2499 C   0  0  0  0  0  0  0  0  0  0  0  0
    0.9521   -3.4336   -1.1837 C   0  0  0  0  0  0  0  0  0  0  0  0
   -0.2486   -3.5743    0.9082 C   0  0  0  0  0  0  0  0  0  0  0  0
    0.4782   -4.1892   -0.1112 C   0  0  0  0  0  0  0  0  0  0  0  0
    3.6870    1.1228   -0.3537 C   0  0  0  0  0  0  0  0  0  0  0  0
    4.6423    0.2040    0.0813 C   0  0  0  0  0  0  0  0  0  0  0  0
    4.0864    2.3728   -0.8267 C   0  0  0  0  0  0  0  0  0  0  0  0
    0.2122   -6.2384    1.0659 C   0  0  0  0  0  0  0  0  0  0  0  0
    5.9966    0.5353    0.0435 C   0  0  0  0  0  0  0  0  0  0  0  0
    5.4406    2.7041   -0.8646 C   0  0  0  0  0  0  0  0  0  0  0  0
    6.3958    1.7854   -0.4295 C   0  0  0  0  0  0  0  0  0  0  0  0
    0.1468    0.4524   -1.1901 H   0  0  0  0  0  0  0  0  0  0  0  0
   -2.4443    1.8457    2.5951 H   0  0  0  0  0  0  0  0  0  0  0  0
   -1.5394    2.8546    1.4560 H   0  0  0  0  0  0  0  0  0  0  0  0
   -0.7243    0.1107    2.5582 H   0  0  0  0  0  0  0  0  0  0  0  0
    0.0795    1.6489    2.7936 H   0  0  0  0  0  0  0  0  0  0  0  0
   -2.3915   -0.6240   -2.0795 H   0  0  0  0  0  0  0  0  0  0  0  0
   -4.9352    2.4699    1.5055 H   0  0  0  0  0  0  0  0  0  0  0  0
   -5.1298   -0.3123   -2.6462 H   0  0  0  0  0  0  0  0  0  0  0  0
    1.0747   -1.4879   -2.0786 H   0  0  0  0  0  0  0  0  0  0  0  0
   -1.0941   -1.7620    1.6482 H   0  0  0  0  0  0  0  0  0  0  0  0
   -7.1679    0.8006   -1.7881 H   0  0  0  0  0  0  0  0  0  0  0  0
    1.5191   -3.9071   -1.9805 H   0  0  0  0  0  0  0  0  0  0  0  0
   -0.6511   -4.1022    1.7660 H   0  0  0  0  0  0  0  0  0  0  0  0
    4.3366   -0.7715    0.4497 H   0  0  0  0  0  0  0  0  0  0  0  0
    3.3466    3.0921   -1.1674 H   0  0  0  0  0  0  0  0  0  0  0  0
    0.5030   -7.2871    0.9449 H   0  0  0  0  0  0  0  0  0  0  0  0
   -0.8825   -6.2115    1.0933 H   0  0  0  0  0  0  0  0  0  0  0  0
    0.6598   -5.8886    2.0023 H   0  0  0  0  0  0  0  0  0  0  0  0
    6.7298   -0.1909    0.3851 H   0  0  0  0  0  0  0  0  0  0  0  0
    5.7372    3.6816   -1.2362 H   0  0  0  0  0  0  0  0  0  0  0  0
  1 21  1  0  0  0  0
  2 32  1  0  0  0  0
  3 16  1  0  0  0  0
  3 26  1  0  0  0  0
  4 16  2  0  0  0  0
  5 25  1  0  0  0  0
  5 29  1  0  0  0  0
  6  8  1  0  0  0  0
  6 12  1  0  0  0  0
  6 16  1  0  0  0  0
  7  9  1  0  0  0  0
  7 14  1  0  0  0  0
  7 38  1  0  0  0  0
  8  9  1  0  0  0  0
  8 15  1  0  0  0  0
  8 33  1  0  0  0  0
  9 10  2  0  0  0  0
 10 11  1  0  0  0  0
 10 13  1  0  0  0  0
 11 12  1  0  0  0  0
 11 34  1  0  0  0  0
 11 35  1  0  0  0  0
 12 36  1  0  0  0  0
 12 37  1  0  0  0  0
 13 14  2  0  0  0  0
 13 17  1  0  0  0  0
 14 18  1  0  0  0  0
 15 19  2  0  0  0  0
 15 20  1  0  0  0  0
 17 21  2  0  0  0  0
 17 39  1  0  0  0  0
 18 22  2  0  0  0  0
 18 40  1  0  0  0  0
 19 23  1  0  0  0  0
 19 41  1  0  0  0  0
 20 24  2  0  0  0  0
 20 42  1  0  0  0  0
 21 22  1  0  0  0  0
 22 43  1  0  0  0  0
 23 25  2  0  0  0  0
 23 44  1  0  0  0  0
 24 25  1  0  0  0  0
 24 45  1  0  0  0  0
 26 27  2  0  0  0  0
 26 28  1  0  0  0  0
 27 30  1  0  0  0  0
 27 46  1  0  0  0  0
 28 31  2  0  0  0  0
 28 47  1  0  0  0  0
 29 48  1  0  0  0  0
 29 49  1  0  0  0  0
 29 50  1  0  0  0  0
 30 32  2  0  0  0  0
 30 51  1  0  0  0  0
 31 32  1  0  0  0  0
 31 52  1  0  0  0  0
M  END
> <PUBCHEM_COMPOUND_CID>
49787172

> <PUBCHEM_CONFORMER_RMSD>
0.8

> <PUBCHEM_CONFORMER_DIVERSEORDER>
1
25
2
18
21
32
23
27
19
7
4
34
31
16
26
6
17
22
29
33
10
24
3
30
28
15
13
11
5
20
12
8
14
9

> <PUBCHEM_MMFF94_PARTIAL_CHARGES>
43
1 -0.18
10 -0.18
11 0.18
12 0.3
14 -0.15
15 -0.14
16 0.78
17 -0.15
18 -0.15
19 -0.15
2 -0.18
20 -0.15
21 0.18
22 -0.15
23 -0.15
24 -0.15
25 0.08
26 0.08
27 -0.15
28 -0.15
29 0.28
3 -0.23
30 -0.15
31 -0.15
32 0.18
38 0.27
39 0.15
4 -0.57
40 0.15
41 0.15
42 0.15
43 0.15
44 0.15
45 0.15
46 0.15
47 0.15
5 -0.36
51 0.15
52 0.15
6 -0.66
7 0.03
8 0.62
9 -0.33

> <PUBCHEM_EFFECTIVE_ROTOR_COUNT>
5.8

> <PUBCHEM_PHARMACOPHORE_FEATURES>
9
1 4 acceptor
1 5 acceptor
1 7 cation
1 7 donor
5 7 9 10 13 14 rings
6 13 14 17 18 21 22 rings
6 15 19 20 23 24 25 rings
6 26 27 28 30 31 32 rings
6 6 8 9 10 11 12 rings

> <PUBCHEM_HEAVY_ATOM_COUNT>
32

> <PUBCHEM_ATOM_DEF_STEREO_COUNT>
1

> <PUBCHEM_ATOM_UDEF_STEREO_COUNT>
0

> <PUBCHEM_BOND_DEF_STEREO_COUNT>
0

> <PUBCHEM_BOND_UDEF_STEREO_COUNT>
0

> <PUBCHEM_ISOTOPIC_ATOM_COUNT>
0

> <PUBCHEM_COMPONENT_COUNT>
1

> <PUBCHEM_CACTVS_TAUTO_COUNT>
1

> <PUBCHEM_CONFORMER_ID>
02F7B12400000001

> <PUBCHEM_MMFF94_ENERGY>
90.0617

> <PUBCHEM_FEATURE_SELFOVERLAP>
45.851

> <PUBCHEM_SHAPE_FINGERPRINT>
10165383 225 18411136935596080717
10190108 129 18267582597925799791
102385 1 17762054341757292032
10369192 42 18259984877365771237
10721379 63 18124601877287490663
11007060 377 18129940225099280105
11135609 187 18343581841578833056
11135926 11 18410567354534401253
11297750 10 17479738659657760138
11488393 25 17972865969576787983
11763715 3 17041497015956392406
11991303 11 18188494708531503190
12293681 160 17989490727296892272
12516196 113 9727633903687188876
12597179 24 18259989262448122595
12788726 201 17756978279055821338
12977781 61 17750822989614670171
13540713 5 17628642947392284985
13782708 43 12966833668314463037
13968360 50 18337668624851991187
14190465 44 18196923599467934136
15064981 194 18120392096837836316
15183329 4 18202566185382544844
15347591 1 18193557758705939625
15439362 3 18264770965207035197
15927050 60 18412824707193174414
16090146 7 18340222863583909808
16993438 75 18055634168975755006
17138139 8 17845635058155962239
1813 80 17623844626998344551
19319366 153 18341891844951673735
20505436 4 17894625998572390296
20554085 129 18059280003382622832
20721686 124 18261108517718973379
21781055 127 18272368625664117536
23366157 5 18122344584242418531
23559900 14 17057236650057084727
23569917 315 18343024376399441046
244849 19 17608965013464771385
249057 3 18408042936309876684
25147074 1 17630049248470509305
25223398 141 18190747633599836899
266924 1 17844532106750063929
340366 18 18187935036049637748
3411729 13 18341051792445487407
3633792 109 18342743971122216140
4058900 60 18411424977229127161
4073 2 18409736128360503587
4409770 3 18193562396046779675
44802255 64 18114179774540869374
4516262 110 18338231567017994133
45266715 3 18199763474930645606
504843 32 18189058744869141570
5265222 85 18267588098623189473
563151 40 18341048622913162607
563151 97 18269282274269878689
58260988 587 18335990749044683883
59755656 520 18337665412363972014
6669772 16 18411422787081234238
6679774 75 18189598502400553506
6691757 9 18272098236098016424
6898599 12 18047481298940487580

> <PUBCHEM_SHAPE_MULTIPOLES>
634.71
16.18
5.88
1.47
4.1
15.1
-0.25
-23.51
4.5
2.63
-1.13
-0.88
-0.14
-0.99

> <PUBCHEM_SHAPE_SELFOVERLAP>
1387.191

> <PUBCHEM_SHAPE_VOLUME>
346.3

> <PUBCHEM_COORDINATE_TYPE>
2
5
10

$$$$
11190538
  -OEChem-11282412143D

 52 56  0     1  0  0  0  0  0999 V2000
   -7.6087   -2.4428    0.4897 Cl  0  0  0  0  0  0  0  0  0  0  0  0
    8.0336   -2.1932   -0.4735 Cl  0  0  0  0  0  0  0  0  0  0  0  0
    2.3363   -0.7961   -0.3196 O   0  0  0  0  0  0  0  0  0  0  0  0
    2.2681   -1.6757    1.8204 O   0  0  0  0  0  0  0  0  0  0  0  0
    0.7428    5.5152   -0.0550 O   0  0  0  0  0  0  0  0  0  0  0  0
    0.3360   -0.7823    0.8683 N   0  0  0  0  0  0  0  0  0  0  0  0
   -2.6247    0.0378   -1.2955 N   0  0  0  0  0  0  0  0  0  0  0  0
   -0.2965   -0.0508   -0.2768 C   0  0  1  0  0  0  0  0  0  0  0  0
   -1.7554   -0.3868   -0.3289 C   0  0  0  0  0  0  0  0  0  0  0  0
   -2.4528   -1.1778    0.5597 C   0  0  0  0  0  0  0  0  0  0  0  0
   -1.7800   -1.8235    1.7165 C   0  0  0  0  0  0  0  0  0  0  0  0
   -0.4872   -1.0709    2.0647 C   0  0  0  0  0  0  0  0  0  0  0  0
   -3.8061   -1.2249    0.1266 C   0  0  0  0  0  0  0  0  0  0  0  0
   -3.8869   -0.4522   -1.0368 C   0  0  0  0  0  0  0  0  0  0  0  0
   -0.0173    1.4435   -0.2166 C   0  0  0  0  0  0  0  0  0  0  0  0
    1.6955   -1.1341    0.8756 C   0  0  0  0  0  0  0  0  0  0  0  0
   -4.9746   -1.8513    0.6052 C   0  0  0  0  0  0  0  0  0  0  0  0
   -5.0827   -0.2739   -1.7417 C   0  0  0  0  0  0  0  0  0  0  0  0
    0.7076    2.0531   -1.2367 C   0  0  0  0  0  0  0  0  0  0  0  0
   -0.4888    2.1930    0.8574 C   0  0  0  0  0  0  0  0  0  0  0  0
   -6.1766   -1.6805   -0.0905 C   0  0  0  0  0  0  0  0  0  0  0  0
   -6.2277   -0.9032   -1.2455 C   0  0  0  0  0  0  0  0  0  0  0  0
    0.9631    3.4233   -1.1824 C   0  0  0  0  0  0  0  0  0  0  0  0
   -0.2333    3.5633    0.9118 C   0  0  0  0  0  0  0  0  0  0  0  0
    0.4927    4.1784   -0.1080 C   0  0  0  0  0  0  0  0  0  0  0  0
    3.6938   -1.1284   -0.3576 C   0  0  0  0  0  0  0  0  0  0  0  0
    4.0535   -2.3682   -0.8310 C   0  0  0  0  0  0  0  0  0  0  0  0
    4.6095   -0.2014    0.0813 C   0  0  0  0  0  0  0  0  0  0  0  0
    0.2327    6.2270    1.0715 C   0  0  0  0  0  0  0  0  0  0  0  0
    5.4076   -2.7002   -0.8676 C   0  0  0  0  0  0  0  0  0  0  0  0
    5.9637   -0.5334    0.0448 C   0  0  0  0  0  0  0  0  0  0  0  0
    6.3628   -1.7829   -0.4296 C   0  0  0  0  0  0  0  0  0  0  0  0
    0.1524   -0.4562   -1.1932 H   0  0  0  0  0  0  0  0  0  0  0  0
   -2.4393   -1.8507    2.5906 H   0  0  0  0  0  0  0  0  0  0  0  0
   -1.5391   -2.8592    1.4473 H   0  0  0  0  0  0  0  0  0  0  0  0
   -0.7135   -0.1219    2.5578 H   0  0  0  0  0  0  0  0  0  0  0  0
    0.0855   -1.6635    2.7861 H   0  0  0  0  0  0  0  0  0  0  0  0
   -2.3833    0.6293   -2.0789 H   0  0  0  0  0  0  0  0  0  0  0  0
   -4.9349   -2.4583    1.5060 H   0  0  0  0  0  0  0  0  0  0  0  0
   -5.1237    0.3294   -2.6424 H   0  0  0  0  0  0  0  0  0  0  0  0
    1.0802    1.4781   -2.0799 H   0  0  0  0  0  0  0  0  0  0  0  0
   -1.0809    1.7511    1.6503 H   0  0  0  0  0  0  0  0  0  0  0  0
   -7.1655   -0.7749   -1.7819 H   0  0  0  0  0  0  0  0  0  0  0  0
    1.5293    3.8968   -1.9798 H   0  0  0  0  0  0  0  0  0  0  0  0
   -0.6334    4.0909    1.7709 H   0  0  0  0  0  0  0  0  0  0  0  0
    3.3093   -3.0809   -1.1718 H   0  0  0  0  0  0  0  0  0  0  0  0
    4.2974    0.7708    0.4494 H   0  0  0  0  0  0  0  0  0  0  0  0
    0.6814    5.8752    2.0067 H   0  0  0  0  0  0  0  0  0  0  0  0
   -0.8619    6.2020    1.1011 H   0  0  0  0  0  0  0  0  0  0  0  0
    0.5254    7.2752    0.9511 H   0  0  0  0  0  0  0  0  0  0  0  0
    5.7039   -3.6776   -1.2397 H   0  0  0  0  0  0  0  0  0  0  0  0
    6.6967    0.1915    0.3894 H   0  0  0  0  0  0  0  0  0  0  0  0
  1 21  1  0  0  0  0
  2 32  1  0  0  0  0
  3 16  1  0  0  0  0
  3 26  1  0  0  0  0
  4 16  2  0  0  0  0
  5 25  1  0  0  0  0
  5 29  1  0  0  0  0
  6  8  1  0  0  0  0
  6 12  1  0  0  0  0
  6 16  1  0  0  0  0
  7  9  1  0  0  0  0
  7 14  1  0  0  0  0
  7 38  1  0  0  0  0
  8  9  1  0  0  0  0
  8 15  1  0  0  0  0
  8 33  1  0  0  0  0
  9 10  2  0  0  0  0
 10 11  1  0  0  0  0
 10 13  1  0  0  0  0
 11 12  1  0  0  0  0
 11 34  1  0  0  0  0
 11 35  1  0  0  0  0
 12 36  1  0  0  0  0
 12 37  1  0  0  0  0
 13 14  2  0  0  0  0
 13 17  1  0  0  0  0
 14 18  1  0  0  0  0
 15 19  2  0  0  0  0
 15 20  1  0  0  0  0
 17 21  2  0  0  0  0
 17 39  1  0  0  0  0
 18 22  2  0  0  0  0
 18 40  1  0  0  0  0
 19 23  1  0  0  0  0
 19 41  1  0  0  0  0
 20 24  2  0  0  0  0
 20 42  1  0  0  0  0
 21 22  1  0  0  0  0
 22 43  1  0  0  0  0
 23 25  2  0  0  0  0
 23 44  1  0  0  0  0
 24 25  1  0  0  0  0
 24 45  1  0  0  0  0
 26 27  2  0  0  0  0
 26 28  1  0  0  0  0
 27 30  1  0  0  0  0
 27 46  1  0  0  0  0
 28 31  2  0  0  0  0
 28 47  1  0  0  0  0
 29 48  1  0  0  0  0
 29 49  1  0  0  0  0
 29 50  1  0  0  0  0
 30 32  2  0  0  0  0
 30 51  1  0  0  0  0
 31 32  1  0  0  0  0
 31 52  1  0  0  0  0
M  END
> <PUBCHEM_COMPOUND_CID>
11190538

> <PUBCHEM_CONFORMER_RMSD>
0.8

> <PUBCHEM_CONFORMER_DIVERSEORDER>
8
23
62
52
9
26
33
12
54
51
39
63
44
36
14
41
18
31
24
7
29
50
32
6
11
10
55
48
60
28
58
3
27
53
22
49
4
37
34
56
16
45
47
5
57
20
40
61
25
2
30
59
17
43
15
46
19
21
38
42
35
1
13

> <PUBCHEM_MMFF94_PARTIAL_CHARGES>
43
1 -0.18
10 -0.18
11 0.18
12 0.3
14 -0.15
15 -0.14
16 0.78
17 -0.15
18 -0.15
19 -0.15
2 -0.18
20 -0.15
21 0.18
22 -0.15
23 -0.15
24 -0.15
25 0.08
26 0.08
27 -0.15
28 -0.15
29 0.28
3 -0.23
30 -0.15
31 -0.15
32 0.18
38 0.27
39 0.15
4 -0.57
40 0.15
41 0.15
42 0.15
43 0.15
44 0.15
45 0.15
46 0.15
47 0.15
5 -0.36
51 0.15
52 0.15
6 -0.66
7 0.03
8 0.62
9 -0.33

> <PUBCHEM_EFFECTIVE_ROTOR_COUNT>
5.8

> <PUBCHEM_PHARMACOPHORE_FEATURES>
9
1 4 acceptor
1 5 acceptor
1 7 cation
1 7 donor
5 7 9 10 13 14 rings
6 13 14 17 18 21 22 rings
6 15 19 20 23 24 25 rings
6 26 27 28 30 31 32 rings
6 6 8 9 10 11 12 rings

> <PUBCHEM_HEAVY_ATOM_COUNT>
32

> <PUBCHEM_ATOM_DEF_STEREO_COUNT>
0

> <PUBCHEM_ATOM_UDEF_STEREO_COUNT>
1

> <PUBCHEM_BOND_DEF_STEREO_COUNT>
0

> <PUBCHEM_BOND_UDEF_STEREO_COUNT>
0

> <PUBCHEM_ISOTOPIC_ATOM_COUNT>
0

> <PUBCHEM_COMPONENT_COUNT>
1

> <PUBCHEM_CACTVS_TAUTO_COUNT>
1

> <PUBCHEM_CONFORMER_ID>
00AAC10A00000008

> <PUBCHEM_MMFF94_ENERGY>
90.4338

> <PUBCHEM_FEATURE_SELFOVERLAP>
45.851

> <PUBCHEM_SHAPE_FINGERPRINT>
10411042 1 18411704283110105620
10930396 42 18265869485673501146
11101153 10 18410302402692796572
11115154 58 18410288082928998581
11331351 85 17989203733635358793
11411753 3 17897436415202986167
11607047 74 17769357655298771873
11720765 8 18341329002341273245
12166972 35 18272933864655590059
12293681 160 17968093088595837890
12516196 113 18410853265484776430
12522641 24 18264775540365486235
12788726 201 18190452766904671386
13590594 115 18411427185433739433
13673619 4 17775282734355838138
13782708 43 17703226196811637902
13911987 19 18189354483959763366
14068700 675 17989204858774105883
14068700 686 18127975205306967678
14347332 77 18193552269104810706
14508225 48 18410856538529333244
14556957 393 18262537904916230332
14955137 171 18340487862918113303
15021287 119 18342471343973061195
15183329 4 16298105380255632062
15198563 99 18340206263271735916
15351339 4 17823405016344245219
15439362 3 18123184877388021401
15775530 1 17465679182935462947
15927050 60 17620195772959299436
16087824 20 18123190105170816241
16090146 7 17241912916502929322
16114785 44 17977123265988786328
16992727 255 17896879842453366229
16994733 274 14490464262399270439
1813 80 18059871557475304863
18365409 1 18049444738702800445
18393751 57 18127670829917257338
20238998 120 18412825776481359480
20771845 65 18272936058935641545
21049683 271 18187087303435343189
21120745 212 18267304231608482632
21304303 172 18270967843107015433
21365058 113 18410576206140348845
21583282 1 18058445590327472692
21792961 116 17603310323599460714
21927370 108 18339939129105845618
23536364 44 18261947441043510309
23559900 14 18337666546599672499
24771750 20 17756998070275677524
283562 15 18190744137660280602
3004659 81 17821447963383580286
3298306 158 17829618605988217772
3610482 184 17683840643336349726
4015057 19 18336551628491520203
4017518 198 17550094206330189128
4353968 344 18267866070046771422
437815 12 18408603669363626727
4403749 210 9655276134574633111
4408954 87 17266968450038126129
4461854 278 17695089708088249265
508180 173 18259701190839339305
5219985 9 18413108346632123366
58083652 198 18409451401217941321
5969126 39 18341891840830474382
6004065 56 18338517563877426626
6086070 43 18336533959924349261
70251023 43 18412546471006179674
7399639 24 18201422668115251682
77188 2 18412829100881148084
9962374 69 18269548520263242151

> <PUBCHEM_SHAPE_MULTIPOLES>
634.71
16.1
5.86
1.47
3.49
15
0.25
-23.24
-4.44
2.73
1.15
-0.87
-0.13
1

> <PUBCHEM_SHAPE_SELFOVERLAP>
1389.551

> <PUBCHEM_SHAPE_VOLUME>
346.1

> <PUBCHEM_COORDINATE_TYPE>
2
5
10

$$$$
11485656
  -OEChem-11282412143D

 46 49  0     0  0  0  0  0  0999 V2000
    5.9726   -2.2756   -1.0519 F   0  0  0  0  0  0  0  0  0  0  0  0
    2.4172    0.9152    0.5810 O   0  0  0  0  0  0  0  0  0  0  0  0
   -6.7070    1.0095   -1.1999 N   0  0  0  0  0  0  0  0  0  0  0  0
   -5.7905    1.1890   -2.1656 N   0  0  0  0  0  0  0  0  0  0  0  0
    1.4605   -1.0980   -0.1410 N   0  0  0  0  0  0  0  0  0  0  0  0
   -3.4517    0.7257   -2.2237 N   0  0  0  0  0  0  0  0  0  0  0  0
    3.7509   -0.8180   -0.2474 N   0  0  0  0  0  0  0  0  0  0  0  0
   -4.8525    0.2751   -0.2889 C   0  0  0  0  0  0  0  0  0  0  0  0
   -4.0450   -0.2788    0.7184 C   0  0  0  0  0  0  0  0  0  0  0  0
   -6.2085    0.4645   -0.0475 C   0  0  0  0  0  0  0  0  0  0  0  0
   -2.6343   -0.4883    0.4974 C   0  0  0  0  0  0  0  0  0  0  0  0
   -4.6635    0.7412   -1.6077 C   0  0  0  0  0  0  0  0  0  0  0  0
   -4.6396   -0.6229    1.9388 C   0  0  0  0  0  0  0  0  0  0  0  0
   -6.8211    0.1284    1.1617 C   0  0  0  0  0  0  0  0  0  0  0  0
   -2.1798   -1.6971   -0.0345 C   0  0  0  0  0  0  0  0  0  0  0  0
   -1.7177    0.5165    0.8158 C   0  0  0  0  0  0  0  0  0  0  0  0
   -6.0041   -0.4219    2.1546 C   0  0  0  0  0  0  0  0  0  0  0  0
    0.0967   -0.8949    0.0719 C   0  0  0  0  0  0  0  0  0  0  0  0
   -0.8162   -1.9002   -0.2469 C   0  0  0  0  0  0  0  0  0  0  0  0
   -0.3540    0.3136    0.6033 C   0  0  0  0  0  0  0  0  0  0  0  0
    5.0551   -0.2773   -0.1539 C   0  0  0  0  0  0  0  0  0  0  0  0
    2.5364   -0.2128    0.1136 C   0  0  0  0  0  0  0  0  0  0  0  0
    6.5060    1.5387    0.4402 C   0  0  0  0  0  0  0  0  0  0  0  0
    5.2214    1.0029    0.3485 C   0  0  0  0  0  0  0  0  0  0  0  0
    6.1374   -1.0366   -0.5672 C   0  0  0  0  0  0  0  0  0  0  0  0
    7.6062    0.7871    0.0282 C   0  0  0  0  0  0  0  0  0  0  0  0
    7.4220   -0.5006   -0.4757 C   0  0  0  0  0  0  0  0  0  0  0  0
    6.7033    2.9157    0.9786 C   0  0  0  0  0  0  0  0  0  0  0  0
   -4.0418   -1.0541    2.7394 H   0  0  0  0  0  0  0  0  0  0  0  0
   -7.8811    0.2851    1.3275 H   0  0  0  0  0  0  0  0  0  0  0  0
   -2.8776   -2.4914   -0.2892 H   0  0  0  0  0  0  0  0  0  0  0  0
   -2.0532    1.4645    1.2304 H   0  0  0  0  0  0  0  0  0  0  0  0
   -6.4407   -0.6978    3.1113 H   0  0  0  0  0  0  0  0  0  0  0  0
   -7.6630    1.2816   -1.3919 H   0  0  0  0  0  0  0  0  0  0  0  0
   -0.4791   -2.8466   -0.6619 H   0  0  0  0  0  0  0  0  0  0  0  0
    0.2874    1.1396    0.8752 H   0  0  0  0  0  0  0  0  0  0  0  0
    1.7118   -2.0031   -0.5308 H   0  0  0  0  0  0  0  0  0  0  0  0
   -2.5937    0.3885   -1.8059 H   0  0  0  0  0  0  0  0  0  0  0  0
   -3.3444    1.0680   -3.1739 H   0  0  0  0  0  0  0  0  0  0  0  0
    4.4177    1.6396    0.6869 H   0  0  0  0  0  0  0  0  0  0  0  0
    3.6983   -1.7611   -0.6244 H   0  0  0  0  0  0  0  0  0  0  0  0
    8.6130    1.1908    0.0951 H   0  0  0  0  0  0  0  0  0  0  0  0
    8.2785   -1.0864   -0.7961 H   0  0  0  0  0  0  0  0  0  0  0  0
    6.0069    3.6169    0.5064 H   0  0  0  0  0  0  0  0  0  0  0  0
    6.5383    2.9240    2.0608 H   0  0  0  0  0  0  0  0  0  0  0  0
    7.7159    3.2856    0.7855 H   0  0  0  0  0  0  0  0  0  0  0  0
  1 25  1  0  0  0  0
  2 22  2  0  0  0  0
  3  4  1  0  0  0  0
  3 10  1  0  0  0  0
  3 34  1  0  0  0  0
  4 12  2  0  0  0  0
  5 18  1  0  0  0  0
  5 22  1  0  0  0  0
  5 37  1  0  0  0  0
  6 12  1  0  0  0  0
  6 38  1  0  0  0  0
  6 39  1  0  0  0  0
  7 21  1  0  0  0  0
  7 22  1  0  0  0  0
  7 41  1  0  0  0  0
  8  9  2  0  0  0  0
  8 10  1  0  0  0  0
  8 12  1  0  0  0  0
  9 11  1  0  0  0  0
  9 13  1  0  0  0  0
 10 14  2  0  0  0  0
 11 15  2  0  0  0  0
 11 16  1  0  0  0  0
 13 17  2  0  0  0  0
 13 29  1  0  0  0  0
 14 17  1  0  0  0  0
 14 30  1  0  0  0  0
 15 19  1  0  0  0  0
 15 31  1  0  0  0  0
 16 20  2  0  0  0  0
 16 32  1  0  0  0  0
 17 33  1  0  0  0  0
 18 19  2  0  0  0  0
 18 20  1  0  0  0  0
 19 35  1  0  0  0  0
 20 36  1  0  0  0  0
 21 24  1  0  0  0  0
 21 25  2  0  0  0  0
 23 24  2  0  0  0  0
 23 26  1  0  0  0  0
 23 28  1  0  0  0  0
 24 40  1  0  0  0  0
 25 27  1  0  0  0  0
 26 27  2  0  0  0  0
 26 42  1  0  0  0  0
 27 43  1  0  0  0  0
 28 44  1  0  0  0  0
 28 45  1  0  0  0  0
 28 46  1  0  0  0  0
M  END
> <PUBCHEM_COMPOUND_CID>
11485656

> <PUBCHEM_CONFORMER_RMSD>
0.8

> <PUBCHEM_CONFORMER_DIVERSEORDER>
1
15
11
8
16
12
9
4
7
6
14
10
13
2
3
5

> <PUBCHEM_MMFF94_PARTIAL_CHARGES>
40
1 -0.19
10 -0.15
12 0.37
13 -0.15
14 -0.15
15 -0.15
16 -0.15
17 -0.15
18 0.12
19 -0.15
2 -0.57
20 -0.15
21 0.12
22 0.69
23 -0.14
24 -0.15
25 0.19
26 -0.15
27 -0.15
28 0.14
29 0.15
3 0.3
30 0.15
31 0.15
32 0.15
33 0.15
34 0.27
35 0.15
36 0.15
37 0.37
38 0.4
39 0.4
4 -0.71
40 0.15
41 0.37
42 0.15
43 0.15
5 -0.55
6 -0.88
7 -0.55

> <PUBCHEM_EFFECTIVE_ROTOR_COUNT>
5

> <PUBCHEM_PHARMACOPHORE_FEATURES>
10
1 2 acceptor
1 3 donor
1 5 donor
1 6 donor
1 7 donor
3 4 6 12 cation
5 3 4 8 10 12 rings
6 11 15 16 18 19 20 rings
6 21 23 24 25 26 27 rings
6 8 9 10 13 14 17 rings

> <PUBCHEM_HEAVY_ATOM_COUNT>
28

> <PUBCHEM_ATOM_DEF_STEREO_COUNT>
0

> <PUBCHEM_ATOM_UDEF_STEREO_COUNT>
0

> <PUBCHEM_BOND_DEF_STEREO_COUNT>
0

> <PUBCHEM_BOND_UDEF_STEREO_COUNT>
0

> <PUBCHEM_ISOTOPIC_ATOM_COUNT>
0

> <PUBCHEM_COMPONENT_COUNT>
1

> <PUBCHEM_CACTVS_TAUTO_COUNT>
21

> <PUBCHEM_CONFORMER_ID>
00AF41D800000001

> <PUBCHEM_MMFF94_ENERGY>
84.3094

> <PUBCHEM_FEATURE_SELFOVERLAP>
50.887

> <PUBCHEM_SHAPE_FINGERPRINT>
10 15 17967252035578906192
10066227 112 18411980282473103240
10299344 5 16630809902280731868
10319926 262 17022904592152102209
10554248 39 17846503630162138374
10835480 77 18201153369223242712
11135926 11 18202003200668302967
11315181 36 14692569927560537579
12082328 90 17561084713721996127
12236239 1 16988843869654968083
13403585 85 17240765082160454909
13533116 47 17632300030540572466
13668630 136 12031792474319756016
13911987 19 18342447120288809631
14068700 675 15769775753979190400
14598715 104 17968082127707845181
14856354 85 15339115763016406845
14933364 13 17458347437774852678
15119646 104 16845297094815603534
15183329 4 17704349966123959934
15276724 80 17988925552782877040
15419008 47 18113334215281474772
15461852 350 17968093158091066551
1577012 14 17132119039173367794
15849732 13 18187087260369469606
20157964 124 18201722852011617086
20281389 69 18334858329234807688
21033648 29 18113330925103487897
21150785 3 17346595296246483151
21792961 116 18261111821265793978
21859007 373 18040987415520310652
23081809 10 16989127543539078226
23198884 109 16989123162851634871
23522609 53 16701199567486981288
23559900 14 17988635363021532992
23576562 1 18266166400815106045
2838139 119 17988925569661591624
328310 630 18059862812911600312
397830 11 18043824288579199106
4073 2 18337677546232775674
4169191 19 18200597020323728312
504579 68 17775010115875972788
504843 32 18201718521651700111
54039377 194 16630234923247599999
58902169 19 16845573132353440060
59755656 520 18202566185561704687
6669772 16 18340211791179949879
6898599 12 17701253874935657414
9953998 17 18260840315314450987

> <PUBCHEM_SHAPE_MULTIPOLES>
538.18
24.5
1.77
1.57
21.51
0.2
-0.31
7.4
-0.42
3.34
-0.05
-3.89
0.36
2.74

> <PUBCHEM_SHAPE_SELFOVERLAP>
1199.316

> <PUBCHEM_SHAPE_VOLUME>
287.8

> <PUBCHEM_COORDINATE_TYPE>
2
5
10

$$$$
135423438
  -OEChem-11282412143D

 73 77  0     0  0  0  0  0  0999 V2000
    4.6461   -0.4456    0.6321 O   0  0  0  0  0  0  0  0  0  0  0  0
   -3.5553    3.4681    0.2011 O   0  0  0  0  0  0  0  0  0  0  0  0
   -9.0178   -1.4453    1.3785 O   0  0  0  0  0  0  0  0  0  0  0  0
   -8.4168   -3.1607   -0.0341 O   0  0  0  0  0  0  0  0  0  0  0  0
    7.1950   -1.0880    0.3489 N   0  0  0  0  0  0  0  0  0  0  0  0
    9.6930    0.0328    1.2772 N   0  0  0  0  0  0  0  0  0  0  0  0
    3.8949   -1.4552   -1.3483 N   0  0  0  0  0  0  0  0  0  0  0  0
   -5.3959    2.0423    0.3980 N   0  0  0  0  0  0  0  0  0  0  0  0
   -1.5737   -0.4180   -0.4535 N   0  0  0  0  0  0  0  0  0  0  0  0
    7.5129    0.3317    0.1532 C   0  0  0  0  0  0  0  0  0  0  0  0
    8.4251   -1.8888    0.3789 C   0  0  0  0  0  0  0  0  0  0  0  0
    8.4628    0.8334    1.2463 C   0  0  0  0  0  0  0  0  0  0  0  0
    9.3760   -1.3873    1.4712 C   0  0  0  0  0  0  0  0  0  0  0  0
    6.2899   -1.5660   -0.6943 C   0  0  0  0  0  0  0  0  0  0  0  0
   10.5968    0.5104    2.3220 C   0  0  0  0  0  0  0  0  0  0  0  0
    4.8752   -1.0844   -0.3985 C   0  0  0  0  0  0  0  0  0  0  0  0
    2.4888   -1.1901   -1.1185 C   0  0  0  0  0  0  0  0  0  0  0  0
    4.2286   -2.2187   -2.5610 C   0  0  0  0  0  0  0  0  0  0  0  0
   -3.4737    1.0125   -0.0166 C   0  0  0  0  0  0  0  0  0  0  0  0
   -4.4955    0.0266    0.0769 C   0  0  0  0  0  0  0  0  0  0  0  0
   -5.6913    0.6992    0.3375 C   0  0  0  0  0  0  0  0  0  0  0  0
    1.9879   -1.1637    0.1832 C   0  0  0  0  0  0  0  0  0  0  0  0
    1.6367   -0.9599   -2.1985 C   0  0  0  0  0  0  0  0  0  0  0  0
   -2.0127    0.8013   -0.2849 C   0  0  0  0  0  0  0  0  0  0  0  0
   -4.0582    2.2417    0.1850 C   0  0  0  0  0  0  0  0  0  0  0  0
   -0.2172   -0.6766   -0.6756 C   0  0  0  0  0  0  0  0  0  0  0  0
    0.6349   -0.9069    0.4045 C   0  0  0  0  0  0  0  0  0  0  0  0
    0.2838   -0.7031   -1.9771 C   0  0  0  0  0  0  0  0  0  0  0  0
   -4.5179   -1.3777   -0.0355 C   0  0  0  0  0  0  0  0  0  0  0  0
   -6.9133    0.0348    0.4920 C   0  0  0  0  0  0  0  0  0  0  0  0
   -1.1307    1.9928   -0.3373 C   0  0  0  0  0  0  0  0  0  0  0  0
   -6.9110   -1.3581    0.3764 C   0  0  0  0  0  0  0  0  0  0  0  0
   -5.7329   -2.0556    0.1166 C   0  0  0  0  0  0  0  0  0  0  0  0
   -0.5120    2.4548    0.8243 C   0  0  0  0  0  0  0  0  0  0  0  0
   -0.9187    2.6501   -1.5491 C   0  0  0  0  0  0  0  0  0  0  0  0
   -8.1595   -2.0894    0.5301 C   0  0  0  0  0  0  0  0  0  0  0  0
    0.3186    3.5744    0.7743 C   0  0  0  0  0  0  0  0  0  0  0  0
   -0.0881    3.7697   -1.5992 C   0  0  0  0  0  0  0  0  0  0  0  0
    0.5304    4.2318   -0.4376 C   0  0  0  0  0  0  0  0  0  0  0  0
  -10.2852   -2.0690    1.6116 C   0  0  0  0  0  0  0  0  0  0  0  0
    6.6127    0.9549    0.1837 H   0  0  0  0  0  0  0  0  0  0  0  0
    7.9765    0.4934   -0.8300 H   0  0  0  0  0  0  0  0  0  0  0  0
    8.9321   -1.8627   -0.5953 H   0  0  0  0  0  0  0  0  0  0  0  0
    8.1831   -2.9369    0.5936 H   0  0  0  0  0  0  0  0  0  0  0  0
    8.7092    1.8810    1.0347 H   0  0  0  0  0  0  0  0  0  0  0  0
    7.9528    0.8073    2.2189 H   0  0  0  0  0  0  0  0  0  0  0  0
    8.9254   -1.5566    2.4587 H   0  0  0  0  0  0  0  0  0  0  0  0
   10.2966   -1.9819    1.4263 H   0  0  0  0  0  0  0  0  0  0  0  0
    6.6104   -1.2478   -1.6926 H   0  0  0  0  0  0  0  0  0  0  0  0
    6.2551   -2.6618   -0.6600 H   0  0  0  0  0  0  0  0  0  0  0  0
   10.8665    1.5579    2.1474 H   0  0  0  0  0  0  0  0  0  0  0  0
   11.5319   -0.0605    2.3116 H   0  0  0  0  0  0  0  0  0  0  0  0
   10.1548    0.4301    3.3217 H   0  0  0  0  0  0  0  0  0  0  0  0
    4.4149   -1.5090   -3.3728 H   0  0  0  0  0  0  0  0  0  0  0  0
    3.4088   -2.8925   -2.8308 H   0  0  0  0  0  0  0  0  0  0  0  0
    5.1155   -2.8400   -2.4320 H   0  0  0  0  0  0  0  0  0  0  0  0
    2.5956   -1.3953    1.0514 H   0  0  0  0  0  0  0  0  0  0  0  0
    1.9998   -0.9549   -3.2224 H   0  0  0  0  0  0  0  0  0  0  0  0
   -6.0706    2.7737    0.5743 H   0  0  0  0  0  0  0  0  0  0  0  0
   -3.6188   -1.9514   -0.2364 H   0  0  0  0  0  0  0  0  0  0  0  0
    0.2505   -0.9022    1.4213 H   0  0  0  0  0  0  0  0  0  0  0  0
   -0.3718   -0.5222   -2.8250 H   0  0  0  0  0  0  0  0  0  0  0  0
   -7.8188    0.6023    0.6817 H   0  0  0  0  0  0  0  0  0  0  0  0
   -5.7372   -3.1399    0.0308 H   0  0  0  0  0  0  0  0  0  0  0  0
   -0.6709    1.9508    1.7741 H   0  0  0  0  0  0  0  0  0  0  0  0
   -1.3961    2.2991   -2.4603 H   0  0  0  0  0  0  0  0  0  0  0  0
   -4.2799    4.0935    0.3769 H   0  0  0  0  0  0  0  0  0  0  0  0
    0.8001    3.9341    1.6788 H   0  0  0  0  0  0  0  0  0  0  0  0
    0.0769    4.2816   -2.5428 H   0  0  0  0  0  0  0  0  0  0  0  0
    1.1772    5.1034   -0.4766 H   0  0  0  0  0  0  0  0  0  0  0  0
  -10.8424   -2.1524    0.6738 H   0  0  0  0  0  0  0  0  0  0  0  0
  -10.1428   -3.0540    2.0657 H   0  0  0  0  0  0  0  0  0  0  0  0
  -10.8519   -1.4404    2.3035 H   0  0  0  0  0  0  0  0  0  0  0  0
  1 16  2  0  0  0  0
  2 25  1  0  0  0  0
  2 67  1  0  0  0  0
  3 36  1  0  0  0  0
  3 40  1  0  0  0  0
  4 36  2  0  0  0  0
  5 10  1  0  0  0  0
  5 11  1  0  0  0  0
  5 14  1  0  0  0  0
  6 12  1  0  0  0  0
  6 13  1  0  0  0  0
  6 15  1  0  0  0  0
  7 16  1  0  0  0  0
  7 17  1  0  0  0  0
  7 18  1  0  0  0  0
  8 21  1  0  0  0  0
  8 25  1  0  0  0  0
  8 59  1  0  0  0  0
  9 24  2  0  0  0  0
  9 26  1  0  0  0  0
 10 12  1  0  0  0  0
 10 41  1  0  0  0  0
 10 42  1  0  0  0  0
 11 13  1  0  0  0  0
 11 43  1  0  0  0  0
 11 44  1  0  0  0  0
 12 45  1  0  0  0  0
 12 46  1  0  0  0  0
 13 47  1  0  0  0  0
 13 48  1  0  0  0  0
 14 16  1  0  0  0  0
 14 49  1  0  0  0  0
 14 50  1  0  0  0  0
 15 51  1  0  0  0  0
 15 52  1  0  0  0  0
 15 53  1  0  0  0  0
 17 22  2  0  0  0  0
 17 23  1  0  0  0  0
 18 54  1  0  0  0  0
 18 55  1  0  0  0  0
 18 56  1  0  0  0  0
 19 20  1  0  0  0  0
 19 24  1  0  0  0  0
 19 25  2  0  0  0  0
 20 21  2  0  0  0  0
 20 29  1  0  0  0  0
 21 30  1  0  0  0  0
 22 27  1  0  0  0  0
 22 57  1  0  0  0  0
 23 28  2  0  0  0  0
 23 58  1  0  0  0  0
 24 31  1  0  0  0  0
 26 27  2  0  0  0  0
 26 28  1  0  0  0  0
 27 61  1  0  0  0  0
 28 62  1  0  0  0  0
 29 33  2  0  0  0  0
 29 60  1  0  0  0  0
 30 32  2  0  0  0  0
 30 63  1  0  0  0  0
 31 34  2  0  0  0  0
 31 35  1  0  0  0  0
 32 33  1  0  0  0  0
 32 36  1  0  0  0  0
 33 64  1  0  0  0  0
 34 37  1  0  0  0  0
 34 65  1  0  0  0  0
 35 38  2  0  0  0  0
 35 66  1  0  0  0  0
 37 39  2  0  0  0  0
 37 68  1  0  0  0  0
 38 39  1  0  0  0  0
 38 69  1  0  0  0  0
 39 70  1  0  0  0  0
 40 71  1  0  0  0  0
 40 72  1  0  0  0  0
 40 73  1  0  0  0  0
M  END
> <PUBCHEM_COMPOUND_CID>
135423438

> <PUBCHEM_CONFORMER_RMSD>
1.2

> <PUBCHEM_CONFORMER_DIVERSEORDER>
1
149
171
154
161
184
163
164
151
104
52
130
185
70
84
175
79
30
188
186
10
172
132
98
145
77
116
86
169
51
138
48
32
118
162
189
65
58
73
142
24
37
120
96
57
182
64
147
115
18
191
134
67
157
88
114
165
31
42
141
26
176
13
103
22
68
87
35
94
50
180
173
152
4
139
168
133
12
158
15
99
63
129
178
123
170
160
39
166
121
100
144
179
49
9
127
136
102
69
183
44
34
89
2
153
107
181
36
105
174
62
97
122
131
126
38
85
82
95
19
106
55
137
14
124
110
135
20
59
150
23
148
80
27
41
43
101
125
21
17
29
128
33
117
143
140
71
187
90
111
93
6
156
45
108
60
91
119
76
112
46
177
83
54
146
53
78
61
40
190
3
81
25
66
109
28
113
5
8
159
47
11
72
92
75
74
155
167
7
56
16

> <PUBCHEM_MMFF94_PARTIAL_CHARGES>
53
1 -0.57
10 0.27
11 0.27
12 0.27
13 0.27
14 0.33
15 0.27
16 0.57
17 0.12
18 0.3
19 -0.09
2 -0.51
21 -0.15
22 -0.15
23 -0.15
24 0.45
25 -0.09
26 0.18
27 -0.15
28 -0.15
29 -0.15
3 -0.43
30 -0.15
31 0.09
32 0.09
33 -0.15
34 -0.15
35 -0.15
36 0.63
37 -0.15
38 -0.15
39 -0.15
4 -0.57
40 0.28
5 -0.81
57 0.15
58 0.15
59 0.27
6 -0.81
60 0.15
61 0.15
62 0.15
63 0.15
64 0.15
65 0.15
66 0.15
67 0.45
68 0.15
69 0.15
7 -0.48
70 0.15
8 0.03
9 -0.63

> <PUBCHEM_EFFECTIVE_ROTOR_COUNT>
10.2

> <PUBCHEM_PHARMACOPHORE_FEATURES>
13
1 1 acceptor
1 2 donor
1 4 acceptor
1 5 cation
1 6 cation
1 8 cation
1 8 donor
1 9 acceptor
5 8 19 20 21 25 rings
6 17 22 23 26 27 28 rings
6 20 21 29 30 32 33 rings
6 31 34 35 37 38 39 rings
6 5 6 10 11 12 13 rings

> <PUBCHEM_HEAVY_ATOM_COUNT>
40

> <PUBCHEM_ATOM_DEF_STEREO_COUNT>
0

> <PUBCHEM_ATOM_UDEF_STEREO_COUNT>
0

> <PUBCHEM_BOND_DEF_STEREO_COUNT>
0

> <PUBCHEM_BOND_UDEF_STEREO_COUNT>
0

> <PUBCHEM_ISOTOPIC_ATOM_COUNT>
0

> <PUBCHEM_COMPONENT_COUNT>
1

> <PUBCHEM_CACTVS_TAUTO_COUNT>
-1

> <PUBCHEM_CONFORMER_ID>
081265CE00000001

> <PUBCHEM_MMFF94_ENERGY>
132.8937

> <PUBCHEM_FEATURE_SELFOVERLAP>
66.109

> <PUBCHEM_SHAPE_FINGERPRINT>
10 15 18131066026949920254
10369192 42 17203602663005114196
10483366 6 10737279151979748358
10930396 42 18336536175673702562
11146346 171 18201447927272321870
11409948 8 18272367616040717682
11411753 29 17559127480415027254
11411753 3 17913781517772466028
11963148 33 17763749093931171783
13811026 1 18413106130766634860
14068700 675 18040723541229862812
14150022 121 17846503586817379041
14394314 77 18261959527445425665
15183329 4 8574712399433308822
15320295 40 17385438800705438204
17686467 74 18411415107383789880
18393751 57 18272364262135658606
18608769 82 18343014476709871536
19302320 297 18130498726843507432
19303781 99 18264205980405311455
19315958 150 17131841945127376143
19611394 137 18412547634736491290
20771845 171 17605848129427555277
21130935 74 18267587897398588638
23576562 1 11455016162126764426
25019877 29 17418093209122921558
3418910 222 18201729440054457248
3552219 110 17917999369015231128
3986486 107 12540688228638843911
4149490 64 17387146441047712779
4280585 95 18334580127287336581
44426701 97 18340200911906145417
474113 269 14634860943206666394
59682541 35 18201718466127516274
6201320 82 11311240676770560515
9663363 56 18411136944961286743
9962374 69 18270966868983084191

> <PUBCHEM_SHAPE_MULTIPOLES>
774.8
31.99
4.03
1.71
26.87
4.48
-0.5
-25.23
23.58
-4.32
-0.64
2.78
-0.36
2.57

> <PUBCHEM_SHAPE_SELFOVERLAP>
1685.895

> <PUBCHEM_SHAPE_VOLUME>
423.5

> <PUBCHEM_COORDINATE_TYPE>
2
5
10

$$$$
25141092
  -OEChem-11282412143D

 75 80  0     0  0  0  0  0  0999 V2000
    6.5286   -2.6051    1.5158 F   0  0  0  0  0  0  0  0  0  0  0  0
    3.3127   -4.8013   -1.1793 F   0  0  0  0  0  0  0  0  0  0  0  0
    1.2746   -2.3697    1.8400 O   0  0  0  0  0  0  0  0  0  0  0  0
   -1.1793    4.0066    1.0908 O   0  0  0  0  0  0  0  0  0  0  0  0
   -5.6561   -0.2040   -0.4303 N   0  0  0  0  0  0  0  0  0  0  0  0
   -7.8389   -1.9514   -1.0145 N   0  0  0  0  0  0  0  0  0  0  0  0
   -1.2617    0.2423    1.5500 N   0  0  0  0  0  0  0  0  0  0  0  0
    0.1602    2.4035    0.0226 N   0  0  0  0  0  0  0  0  0  0  0  0
    3.0059    4.3351    0.4935 N   0  0  0  0  0  0  0  0  0  0  0  0
    1.6850    4.1605    0.6650 N   0  0  0  0  0  0  0  0  0  0  0  0
   -1.3098   -1.0989    2.0981 C   0  0  0  0  0  0  0  0  0  0  0  0
   -0.9983   -2.1274    1.0090 C   0  0  0  0  0  0  0  0  0  0  0  0
   -0.3250   -1.2203    3.2620 C   0  0  0  0  0  0  0  0  0  0  0  0
   -6.0751   -1.2091    0.5513 C   0  0  0  0  0  0  0  0  0  0  0  0
   -6.0195   -0.4874   -1.8245 C   0  0  0  0  0  0  0  0  0  0  0  0
   -7.5556   -1.5530    0.3696 C   0  0  0  0  0  0  0  0  0  0  0  0
   -7.5018   -0.8534   -1.9291 C   0  0  0  0  0  0  0  0  0  0  0  0
   -4.5102    0.5630   -0.1925 C   0  0  0  0  0  0  0  0  0  0  0  0
    0.4882   -2.1700    0.6666 C   0  0  0  0  0  0  0  0  0  0  0  0
    1.1189   -1.3065    2.7781 C   0  0  0  0  0  0  0  0  0  0  0  0
   -2.3158    0.7974    0.7907 C   0  0  0  0  0  0  0  0  0  0  0  0
   -3.4577    0.0323    0.5534 C   0  0  0  0  0  0  0  0  0  0  0  0
   -2.2265    2.0932    0.2823 C   0  0  0  0  0  0  0  0  0  0  0  0
   -4.4208    1.8589   -0.7008 C   0  0  0  0  0  0  0  0  0  0  0  0
   -9.2441   -2.3290   -1.1625 C   0  0  0  0  0  0  0  0  0  0  0  0
   -3.2789    2.6240   -0.4634 C   0  0  0  0  0  0  0  0  0  0  0  0
   -1.0470    2.9180    0.5118 C   0  0  0  0  0  0  0  0  0  0  0  0
    1.4505    2.9858    0.0763 C   0  0  0  0  0  0  0  0  0  0  0  0
    2.6144    2.4058   -0.4727 C   0  0  0  0  0  0  0  0  0  0  0  0
    3.6233    3.3174   -0.1825 C   0  0  0  0  0  0  0  0  0  0  0  0
    2.9301    1.2298   -1.1732 C   0  0  0  0  0  0  0  0  0  0  0  0
    4.2600    1.0165   -1.5573 C   0  0  0  0  0  0  0  0  0  0  0  0
    4.6177   -0.2262   -2.3036 C   0  0  0  0  0  0  0  0  0  0  0  0
    4.9551    3.1240   -0.5557 C   0  0  0  0  0  0  0  0  0  0  0  0
    5.2536    1.9488   -1.2528 C   0  0  0  0  0  0  0  0  0  0  0  0
    4.7250   -1.4577   -1.4282 C   0  0  0  0  0  0  0  0  0  0  0  0
    3.9542   -2.5849   -1.7126 C   0  0  0  0  0  0  0  0  0  0  0  0
    5.5947   -1.4645   -0.3377 C   0  0  0  0  0  0  0  0  0  0  0  0
    5.6936   -2.5985    0.4684 C   0  0  0  0  0  0  0  0  0  0  0  0
    4.0530   -3.7188   -0.9063 C   0  0  0  0  0  0  0  0  0  0  0  0
    4.9227   -3.7256    0.1842 C   0  0  0  0  0  0  0  0  0  0  0  0
   -2.2977   -1.2935    2.5320 H   0  0  0  0  0  0  0  0  0  0  0  0
   -1.5742   -1.9646    0.0928 H   0  0  0  0  0  0  0  0  0  0  0  0
   -1.2836   -3.1151    1.3944 H   0  0  0  0  0  0  0  0  0  0  0  0
   -0.5573   -2.1428    3.8099 H   0  0  0  0  0  0  0  0  0  0  0  0
   -0.4362   -0.3857    3.9638 H   0  0  0  0  0  0  0  0  0  0  0  0
   -5.9369   -0.8357    1.5737 H   0  0  0  0  0  0  0  0  0  0  0  0
   -5.4725   -2.1193    0.4360 H   0  0  0  0  0  0  0  0  0  0  0  0
   -5.3995   -1.3131   -2.1972 H   0  0  0  0  0  0  0  0  0  0  0  0
   -5.8350    0.3740   -2.4767 H   0  0  0  0  0  0  0  0  0  0  0  0
   -7.8035   -2.3730    1.0546 H   0  0  0  0  0  0  0  0  0  0  0  0
   -8.1707   -0.6897    0.6578 H   0  0  0  0  0  0  0  0  0  0  0  0
   -8.1147    0.0325   -1.7146 H   0  0  0  0  0  0  0  0  0  0  0  0
   -7.7090   -1.1511   -2.9642 H   0  0  0  0  0  0  0  0  0  0  0  0
   -0.4180    0.7910    1.6643 H   0  0  0  0  0  0  0  0  0  0  0  0
    0.6881   -3.0041   -0.0137 H   0  0  0  0  0  0  0  0  0  0  0  0
    0.8105   -1.2513    0.1630 H   0  0  0  0  0  0  0  0  0  0  0  0
    1.4553   -0.3668    2.3250 H   0  0  0  0  0  0  0  0  0  0  0  0
    1.7798   -1.5134    3.6260 H   0  0  0  0  0  0  0  0  0  0  0  0
   -3.5453   -0.9828    0.9207 H   0  0  0  0  0  0  0  0  0  0  0  0
   -5.2357    2.2956   -1.2722 H   0  0  0  0  0  0  0  0  0  0  0  0
   -9.4467   -2.6608   -2.1868 H   0  0  0  0  0  0  0  0  0  0  0  0
   -9.9238   -1.5020   -0.9269 H   0  0  0  0  0  0  0  0  0  0  0  0
   -9.4863   -3.1722   -0.5061 H   0  0  0  0  0  0  0  0  0  0  0  0
   -3.2237    3.6327   -0.8651 H   0  0  0  0  0  0  0  0  0  0  0  0
    0.1316    1.5045   -0.4533 H   0  0  0  0  0  0  0  0  0  0  0  0
    2.1582    0.5037   -1.4116 H   0  0  0  0  0  0  0  0  0  0  0  0
    3.8751   -0.3855   -3.0972 H   0  0  0  0  0  0  0  0  0  0  0  0
    5.5719   -0.1008   -2.8329 H   0  0  0  0  0  0  0  0  0  0  0  0
    3.4288    5.1768    0.8643 H   0  0  0  0  0  0  0  0  0  0  0  0
    5.7255    3.8491   -0.3181 H   0  0  0  0  0  0  0  0  0  0  0  0
    6.2838    1.7729   -1.5555 H   0  0  0  0  0  0  0  0  0  0  0  0
    3.2714   -2.5942   -2.5577 H   0  0  0  0  0  0  0  0  0  0  0  0
    6.2129   -0.6026   -0.1043 H   0  0  0  0  0  0  0  0  0  0  0  0
    4.9992   -4.6082    0.8121 H   0  0  0  0  0  0  0  0  0  0  0  0
  1 39  1  0  0  0  0
  2 40  1  0  0  0  0
  3 19  1  0  0  0  0
  3 20  1  0  0  0  0
  4 27  2  0  0  0  0
  5 14  1  0  0  0  0
  5 15  1  0  0  0  0
  5 18  1  0  0  0  0
  6 16  1  0  0  0  0
  6 17  1  0  0  0  0
  6 25  1  0  0  0  0
  7 11  1  0  0  0  0
  7 21  1  0  0  0  0
  7 55  1  0  0  0  0
  8 27  1  0  0  0  0
  8 28  1  0  0  0  0
  8 66  1  0  0  0  0
  9 10  1  0  0  0  0
  9 30  1  0  0  0  0
  9 70  1  0  0  0  0
 10 28  2  0  0  0  0
 11 12  1  0  0  0  0
 11 13  1  0  0  0  0
 11 42  1  0  0  0  0
 12 19  1  0  0  0  0
 12 43  1  0  0  0  0
 12 44  1  0  0  0  0
 13 20  1  0  0  0  0
 13 45  1  0  0  0  0
 13 46  1  0  0  0  0
 14 16  1  0  0  0  0
 14 47  1  0  0  0  0
 14 48  1  0  0  0  0
 15 17  1  0  0  0  0
 15 49  1  0  0  0  0
 15 50  1  0  0  0  0
 16 51  1  0  0  0  0
 16 52  1  0  0  0  0
 17 53  1  0  0  0  0
 17 54  1  0  0  0  0
 18 22  2  0  0  0  0
 18 24  1  0  0  0  0
 19 56  1  0  0  0  0
 19 57  1  0  0  0  0
 20 58  1  0  0  0  0
 20 59  1  0  0  0  0
 21 22  1  0  0  0  0
 21 23  2  0  0  0  0
 22 60  1  0  0  0  0
 23 26  1  0  0  0  0
 23 27  1  0  0  0  0
 24 26  2  0  0  0  0
 24 61  1  0  0  0  0
 25 62  1  0  0  0  0
 25 63  1  0  0  0  0
 25 64  1  0  0  0  0
 26 65  1  0  0  0  0
 28 29  1  0  0  0  0
 29 30  2  0  0  0  0
 29 31  1  0  0  0  0
 30 34  1  0  0  0  0
 31 32  2  0  0  0  0
 31 67  1  0  0  0  0
 32 33  1  0  0  0  0
 32 35  1  0  0  0  0
 33 36  1  0  0  0  0
 33 68  1  0  0  0  0
 33 69  1  0  0  0  0
 34 35  2  0  0  0  0
 34 71  1  0  0  0  0
 35 72  1  0  0  0  0
 36 37  2  0  0  0  0
 36 38  1  0  0  0  0
 37 40  1  0  0  0  0
 37 73  1  0  0  0  0
 38 39  2  0  0  0  0
 38 74  1  0  0  0  0
 39 41  1  0  0  0  0
 40 41  2  0  0  0  0
 41 75  1  0  0  0  0
M  END
> <PUBCHEM_COMPOUND_CID>
25141092

> <PUBCHEM_CONFORMER_RMSD>
1.2

> <PUBCHEM_CONFORMER_DIVERSEORDER>
1
60
96
110
52
97
84
66
105
45
89
30
69
120
103
98
78
90
65
118
54
63
26
114
92
50
95
115
87
111
119
85
46
83
70
88
93
104
48
7
31
81
100
59
76
75
77
71
56
68
62
94
91
99
32
82
64
39
101
112
33
29
47
113
38
79
116
107
73
4
102
86
80
72
28
57
34
53
2
74
106
49
109
108
117
22
67
24
51
27
61
43
40
37
18
42
35
11
36
17
10
9
15
25
44
55
58
5
21
19
12
41
23
3
16
20
8
13
6
14

> <PUBCHEM_MMFF94_PARTIAL_CHARGES>
50
1 -0.19
10 -0.71
11 0.37
14 0.37
15 0.37
16 0.27
17 0.27
18 0.1
19 0.28
2 -0.19
20 0.28
21 0.1
22 -0.15
23 0.09
24 -0.15
25 0.27
26 -0.15
27 0.54
28 0.35
3 -0.56
30 -0.15
31 -0.15
32 -0.14
33 0.29
34 -0.15
35 -0.15
36 -0.14
37 -0.15
38 -0.15
39 0.19
4 -0.57
40 0.19
41 -0.15
5 -0.84
55 0.4
6 -0.81
60 0.15
61 0.15
65 0.15
66 0.37
67 0.15
7 -0.87
70 0.27
71 0.15
72 0.15
73 0.15
74 0.15
75 0.15
8 -0.49
9 0.3

> <PUBCHEM_EFFECTIVE_ROTOR_COUNT>
10.4

> <PUBCHEM_PHARMACOPHORE_FEATURES>
14
1 3 acceptor
1 4 acceptor
1 5 cation
1 6 cation
1 7 cation
1 7 donor
1 8 donor
1 9 donor
5 9 10 28 29 30 rings
6 18 21 22 23 24 26 rings
6 29 30 31 32 34 35 rings
6 3 11 12 13 19 20 rings
6 36 37 38 39 40 41 rings
6 5 6 14 15 16 17 rings

> <PUBCHEM_HEAVY_ATOM_COUNT>
41

> <PUBCHEM_ATOM_DEF_STEREO_COUNT>
0

> <PUBCHEM_ATOM_UDEF_STEREO_COUNT>
0

> <PUBCHEM_BOND_DEF_STEREO_COUNT>
0

> <PUBCHEM_BOND_UDEF_STEREO_COUNT>
0

> <PUBCHEM_ISOTOPIC_ATOM_COUNT>
0

> <PUBCHEM_COMPONENT_COUNT>
1

> <PUBCHEM_CACTVS_TAUTO_COUNT>
21

> <PUBCHEM_CONFORMER_ID>
017F9F6400000001

> <PUBCHEM_MMFF94_ENERGY>
121.7582

> <PUBCHEM_FEATURE_SELFOVERLAP>
71.144

> <PUBCHEM_SHAPE_FINGERPRINT>
10693767 8 18341606071102797439
11607047 403 18057867208524960384
12124843 1 18189070719696458142
12838863 1 18262230029002799994
1361 2 18271813478922233596
13782708 43 18259990344821754397
14347332 77 18341335496368300021
15160629 131 18200612327127696039
15320295 40 17896026656116990818
15351339 4 18260829284968055112
15444296 7 18131338726854998894
15840311 113 10881941893416321749
16067689 302 18263654008319538451
17324776 126 17974847268478301618
19311894 1 17907304251808161552
19315092 285 17632579323394199040
19958102 18 17967537878189346781
20764821 26 17832175761091606450
20775438 99 18196638803975010351
21344244 246 18337106860657547331
21792938 131 18342453755749550889
2260408 40 11743832595134902571
23569914 152 17908116817477904141
397830 11 10375867516026298885
4066623 53 18186796959556913956
4173938 188 17488459849194240772
44344687 77 18337408110112530451
45266715 3 18334573594436259888
50009960 94 18263068938893684498
56611832 218 17762054741938681275
57527295 17 18269012924497443428
6004065 56 18410853244695579658
6669772 16 18267864067531019344
6700243 42 17697884670038604686

> <PUBCHEM_SHAPE_MULTIPOLES>
787.59
19.74
5.95
2.2
34.95
1.4
-0.92
-15.09
11.78
-8.93
-0.22
-0.11
-1.42
-1.01

> <PUBCHEM_SHAPE_SELFOVERLAP>
1718.238

> <PUBCHEM_SHAPE_VOLUME>
429

> <PUBCHEM_COORDINATE_TYPE>
2
5
10

$$$$
71731823
  -OEChem-11282412143D

 49 52  0     1  0  0  0  0  0999 V2000
    4.7511    0.3334   -2.6158 F   0  0  0  0  0  0  0  0  0  0  0  0
    1.8624    1.9149    1.3738 O   0  0  0  0  0  0  0  0  0  0  0  0
    1.7644   -2.5040    2.0645 O   0  0  0  0  0  0  0  0  0  0  0  0
   -0.0510   -2.4744    0.5812 N   0  0  0  0  0  0  0  0  0  0  0  0
   -4.1185   -1.2266   -0.4343 N   0  0  0  0  0  0  0  0  0  0  0  0
   -3.1296   -2.1175   -0.6028 N   0  0  0  0  0  0  0  0  0  0  0  0
   -0.7413    3.3634   -0.6935 N   0  0  0  0  0  0  0  0  0  0  0  0
    1.3320    4.2170    0.0774 N   0  0  0  0  0  0  0  0  0  0  0  0
   -5.2660    2.0603    0.1636 N   0  0  0  0  0  0  0  0  0  0  0  0
   -0.6757   -2.0321   -0.6860 C   0  0  0  0  0  0  0  0  0  0  0  0
   -2.0128   -1.3839   -0.4865 C   0  0  0  0  0  0  0  0  0  0  0  0
   -2.3161   -0.0064   -0.2544 C   0  0  0  0  0  0  0  0  0  0  0  0
    2.3588    0.5845    1.6470 C   0  0  1  0  0  0  0  0  0  0  0  0
    2.6949   -0.1821    0.3700 C   0  0  0  0  0  0  0  0  0  0  0  0
    2.1619   -1.4523    0.0600 C   0  0  0  0  0  0  0  0  0  0  0  0
   -1.4392    1.1302   -0.0871 C   0  0  0  0  0  0  0  0  0  0  0  0
    1.2675   -2.1787    0.9855 C   0  0  0  0  0  0  0  0  0  0  0  0
   -3.6903    0.0515   -0.2350 C   0  0  0  0  0  0  0  0  0  0  0  0
    0.6536    2.0060    0.7442 C   0  0  0  0  0  0  0  0  0  0  0  0
   -0.3133    1.0105    0.7229 C   0  0  0  0  0  0  0  0  0  0  0  0
    3.6070    0.7496    2.5202 C   0  0  0  0  0  0  0  0  0  0  0  0
    3.5663    0.4065   -0.5662 C   0  0  0  0  0  0  0  0  0  0  0  0
    2.5390   -2.1239   -1.1131 C   0  0  0  0  0  0  0  0  0  0  0  0
   -0.8480   -3.3446    1.4435 C   0  0  0  0  0  0  0  0  0  0  0  0
   -1.6146    2.3307   -0.7594 C   0  0  0  0  0  0  0  0  0  0  0  0
    0.3781    3.1688    0.0434 C   0  0  0  0  0  0  0  0  0  0  0  0
    3.9168   -0.2523   -1.7466 C   0  0  0  0  0  0  0  0  0  0  0  0
    3.4087   -1.5187   -2.0163 C   0  0  0  0  0  0  0  0  0  0  0  0
   -5.4876   -1.6879   -0.4848 C   0  0  0  0  0  0  0  0  0  0  0  0
   -4.5582    1.1581   -0.0154 C   0  0  0  0  0  0  0  0  0  0  0  0
   -0.7732   -2.9231   -1.3183 H   0  0  0  0  0  0  0  0  0  0  0  0
   -0.0274   -1.3345   -1.2212 H   0  0  0  0  0  0  0  0  0  0  0  0
    1.6346    0.0538    2.2720 H   0  0  0  0  0  0  0  0  0  0  0  0
   -0.1970    0.1133    1.3172 H   0  0  0  0  0  0  0  0  0  0  0  0
    4.3658    1.3725    2.0336 H   0  0  0  0  0  0  0  0  0  0  0  0
    4.0560   -0.2186    2.7646 H   0  0  0  0  0  0  0  0  0  0  0  0
    3.3465    1.2582    3.4554 H   0  0  0  0  0  0  0  0  0  0  0  0
    3.9843    1.3936   -0.3812 H   0  0  0  0  0  0  0  0  0  0  0  0
    2.1582   -3.1185   -1.3322 H   0  0  0  0  0  0  0  0  0  0  0  0
   -1.6502   -2.7588    1.9006 H   0  0  0  0  0  0  0  0  0  0  0  0
   -0.2445   -3.7840    2.2422 H   0  0  0  0  0  0  0  0  0  0  0  0
   -1.2706   -4.1544    0.8417 H   0  0  0  0  0  0  0  0  0  0  0  0
   -2.4561    2.5066   -1.4218 H   0  0  0  0  0  0  0  0  0  0  0  0
    3.6916   -2.0352   -2.9286 H   0  0  0  0  0  0  0  0  0  0  0  0
   -5.9560   -1.4848    0.4814 H   0  0  0  0  0  0  0  0  0  0  0  0
   -5.5053   -2.7625   -0.6857 H   0  0  0  0  0  0  0  0  0  0  0  0
   -6.0035   -1.1544   -1.2870 H   0  0  0  0  0  0  0  0  0  0  0  0
    1.9322    4.2921    0.8895 H   0  0  0  0  0  0  0  0  0  0  0  0
    1.1094    5.0597   -0.4376 H   0  0  0  0  0  0  0  0  0  0  0  0
  1 27  1  0  0  0  0
  2 13  1  0  0  0  0
  2 19  1  0  0  0  0
  3 17  2  0  0  0  0
  4 10  1  0  0  0  0
  4 17  1  0  0  0  0
  4 24  1  0  0  0  0
  5  6  1  0  0  0  0
  5 18  1  0  0  0  0
  5 29  1  0  0  0  0
  6 11  2  0  0  0  0
  7 25  2  0  0  0  0
  7 26  1  0  0  0  0
  8 26  1  0  0  0  0
  8 48  1  0  0  0  0
  8 49  1  0  0  0  0
  9 30  3  0  0  0  0
 10 11  1  0  0  0  0
 10 31  1  0  0  0  0
 10 32  1  0  0  0  0
 11 12  1  0  0  0  0
 12 16  1  0  0  0  0
 12 18  2  0  0  0  0
 13 14  1  0  0  0  0
 13 21  1  0  0  0  0
 13 33  1  0  0  0  0
 14 15  2  0  0  0  0
 14 22  1  0  0  0  0
 15 17  1  0  0  0  0
 15 23  1  0  0  0  0
 16 20  2  0  0  0  0
 16 25  1  0  0  0  0
 18 30  1  0  0  0  0
 19 20  1  0  0  0  0
 19 26  2  0  0  0  0
 20 34  1  0  0  0  0
 21 35  1  0  0  0  0
 21 36  1  0  0  0  0
 21 37  1  0  0  0  0
 22 27  2  0  0  0  0
 22 38  1  0  0  0  0
 23 28  2  0  0  0  0
 23 39  1  0  0  0  0
 24 40  1  0  0  0  0
 24 41  1  0  0  0  0
 24 42  1  0  0  0  0
 25 43  1  0  0  0  0
 27 28  1  0  0  0  0
 28 44  1  0  0  0  0
 29 45  1  0  0  0  0
 29 46  1  0  0  0  0
 29 47  1  0  0  0  0
M  END
> <PUBCHEM_COMPOUND_CID>
71731823

> <PUBCHEM_CONFORMER_RMSD>
0.6

> <PUBCHEM_CONFORMER_DIVERSEORDER>
1
4
3
2

> <PUBCHEM_MMFF94_PARTIAL_CHARGES>
36
1 -0.19
10 0.48
11 0.11
12 -0.05
13 0.42
14 -0.14
15 0.09
16 0.05
17 0.54
18 -0.13
19 0.08
2 -0.36
20 -0.15
22 -0.15
23 -0.15
24 0.3
25 0.16
26 0.41
27 0.19
28 -0.15
29 0.26
3 -0.57
30 0.54
34 0.15
38 0.15
39 0.15
4 -0.66
43 0.15
44 0.15
48 0.4
49 0.4
5 0.31
6 -0.71
7 -0.62
8 -0.9
9 -0.56

> <PUBCHEM_EFFECTIVE_ROTOR_COUNT>
0.8

> <PUBCHEM_PHARMACOPHORE_FEATURES>
10
1 2 acceptor
1 3 acceptor
1 6 acceptor
1 7 acceptor
1 8 cation
1 8 donor
1 9 acceptor
5 5 6 11 12 18 rings
6 14 15 22 23 27 28 rings
6 7 16 19 20 25 26 rings

> <PUBCHEM_HEAVY_ATOM_COUNT>
30

> <PUBCHEM_ATOM_DEF_STEREO_COUNT>
1

> <PUBCHEM_ATOM_UDEF_STEREO_COUNT>
0

> <PUBCHEM_BOND_DEF_STEREO_COUNT>
0

> <PUBCHEM_BOND_UDEF_STEREO_COUNT>
0

> <PUBCHEM_ISOTOPIC_ATOM_COUNT>
0

> <PUBCHEM_COMPONENT_COUNT>
1

> <PUBCHEM_CACTVS_TAUTO_COUNT>
2

> <PUBCHEM_CONFORMER_ID>
04468A6F00000001

> <PUBCHEM_MMFF94_ENERGY>
99.1645

> <PUBCHEM_FEATURE_SELFOVERLAP>
50.748

> <PUBCHEM_SHAPE_FINGERPRINT>
10498660 4 18409168775084552159
10616163 171 17472691907020706937
11221954 11 17688584283525723490
12422481 6 17915429823468750002
12553582 1 18408880729013768941
12596599 1 17917714578308066595
12788726 201 18193004715912540408
13009979 54 17827068507773961226
13140716 1 17832688437835689147
13402501 40 18273210932990300560
13617811 41 18188489078230844389
14020679 6 18042143007137119681
14114211 68 17899445037087238647
14790565 3 17908433459278009813
14955137 171 18125753165236565507
15210252 30 18187939377902871316
15238133 3 18260822687887647530
15324884 4 17841446027025279278
15664445 248 18410857672517127252
1601671 61 18271811160103974115
17093844 170 18342450439802930152
17492 54 18116731796779584076
19319366 153 17968661506196101243
19591789 44 18052255090544077873
20642791 105 17182771078827648345
20691752 17 18261383456076693219
20764821 26 17975392647782882797
20775438 99 17840290439677194991
20905425 154 18268135479488941834
21197605 99 17618216652209540291
22182313 1 18270944791911938773
22907989 373 17688645654919909382
23559900 14 18130791174127218180
2818148 4 17984999093306093546
3052486 1 18335130999481192776
484985 159 14184269893764185780
5081480 168 17767723733221134844
57527573 199 18335968853438371032
6287921 2 17843963882186367390
6823239 73 18131348600841834922
9709674 26 18125436664400934367

> <PUBCHEM_SHAPE_MULTIPOLES>
568.49
8.59
4.2
1.8
7.18
1.9
-0.12
-0.99
2.72
0.63
-0.53
-3.04
-0.5
0.57

> <PUBCHEM_SHAPE_SELFOVERLAP>
1250.62

> <PUBCHEM_SHAPE_VOLUME>
307.3

> <PUBCHEM_COORDINATE_TYPE>
2
5
10

$$$$
68165256
  -OEChem-11282412143D

 79 83  0     0  0  0  0  0  0999 V2000
    7.6362    0.8120    0.0810 Cl  0  0  0  0  0  0  0  0  0  0  0  0
    5.1550   -3.5514    0.8950 P   0  0  0  0  0  0  0  0  0  0  0  0
    0.1278    4.6037   -0.3542 O   0  0  0  0  0  0  0  0  0  0  0  0
    5.9384   -2.5129    1.6515 O   0  0  0  0  0  0  0  0  0  0  0  0
   -6.8582   -0.4001    0.1598 N   0  0  0  0  0  0  0  0  0  0  0  0
   -2.8154    0.8633    0.2544 N   0  0  0  0  0  0  0  0  0  0  0  0
   -9.4622   -1.6422   -0.0253 N   0  0  0  0  0  0  0  0  0  0  0  0
    2.3156    3.0900    0.5628 N   0  0  0  0  0  0  0  0  0  0  0  0
    3.6547    1.2014    0.2068 N   0  0  0  0  0  0  0  0  0  0  0  0
    4.6414    3.3677    0.5817 N   0  0  0  0  0  0  0  0  0  0  0  0
    5.0208   -0.6955   -0.1493 N   0  0  0  0  0  0  0  0  0  0  0  0
   -5.4068   -0.3879   -0.0123 C   0  0  0  0  0  0  0  0  0  0  0  0
   -4.9787    0.7662   -0.9230 C   0  0  0  0  0  0  0  0  0  0  0  0
   -4.7200   -0.2524    1.3484 C   0  0  0  0  0  0  0  0  0  0  0  0
   -3.4578    0.8208   -1.0667 C   0  0  0  0  0  0  0  0  0  0  0  0
   -3.1990   -0.1903    1.2006 C   0  0  0  0  0  0  0  0  0  0  0  0
   -7.5351   -0.5623   -1.1326 C   0  0  0  0  0  0  0  0  0  0  0  0
   -7.2642   -1.4622    1.0883 C   0  0  0  0  0  0  0  0  0  0  0  0
   -9.0571   -0.5796   -0.9537 C   0  0  0  0  0  0  0  0  0  0  0  0
   -8.7862   -1.4780    1.2673 C   0  0  0  0  0  0  0  0  0  0  0  0
   -1.5344    1.4232    0.3301 C   0  0  0  0  0  0  0  0  0  0  0  0
  -10.9136   -1.6564    0.1458 C   0  0  0  0  0  0  0  0  0  0  0  0
   -1.3287    2.7488   -0.0519 C   0  0  0  0  0  0  0  0  0  0  0  0
   -0.4637    0.6551    0.7876 C   0  0  0  0  0  0  0  0  0  0  0  0
   -0.0524    3.3066    0.0236 C   0  0  0  0  0  0  0  0  0  0  0  0
    0.8127    1.2128    0.8630 C   0  0  0  0  0  0  0  0  0  0  0  0
    1.0183    2.5385    0.4811 C   0  0  0  0  0  0  0  0  0  0  0  0
    3.5994    2.5257    0.4446 C   0  0  0  0  0  0  0  0  0  0  0  0
    0.4495    4.8403   -1.7232 C   0  0  0  0  0  0  0  0  0  0  0  0
    4.1696   -2.9531   -0.4486 C   0  0  0  0  0  0  0  0  0  0  0  0
    4.2010   -1.6113   -0.8283 C   0  0  0  0  0  0  0  0  0  0  0  0
    4.9003    0.6938    0.0997 C   0  0  0  0  0  0  0  0  0  0  0  0
    6.2670   -4.8198    0.2766 C   0  0  0  0  0  0  0  0  0  0  0  0
    4.0974   -4.4593    2.0286 C   0  0  0  0  0  0  0  0  0  0  0  0
    3.3509   -3.8522   -1.1318 C   0  0  0  0  0  0  0  0  0  0  0  0
    6.0490    1.4490    0.2198 C   0  0  0  0  0  0  0  0  0  0  0  0
    5.8566    2.7937    0.4630 C   0  0  0  0  0  0  0  0  0  0  0  0
    3.4135   -1.1685   -1.8911 C   0  0  0  0  0  0  0  0  0  0  0  0
    2.5636   -3.4096   -2.1948 C   0  0  0  0  0  0  0  0  0  0  0  0
    2.5948   -2.0676   -2.5743 C   0  0  0  0  0  0  0  0  0  0  0  0
   -5.0776   -1.3319   -0.4708 H   0  0  0  0  0  0  0  0  0  0  0  0
   -5.3754    0.6663   -1.9377 H   0  0  0  0  0  0  0  0  0  0  0  0
   -5.3396    1.7216   -0.5194 H   0  0  0  0  0  0  0  0  0  0  0  0
   -5.0711    0.6514    1.8642 H   0  0  0  0  0  0  0  0  0  0  0  0
   -4.9113   -1.1065    2.0049 H   0  0  0  0  0  0  0  0  0  0  0  0
   -3.0988   -0.0607   -1.6131 H   0  0  0  0  0  0  0  0  0  0  0  0
   -3.2050    1.6978   -1.6737 H   0  0  0  0  0  0  0  0  0  0  0  0
   -2.7735    0.0029    2.1934 H   0  0  0  0  0  0  0  0  0  0  0  0
   -2.8211   -1.1600    0.8526 H   0  0  0  0  0  0  0  0  0  0  0  0
   -7.3355    0.2777   -1.8038 H   0  0  0  0  0  0  0  0  0  0  0  0
   -7.2100   -1.4815   -1.6384 H   0  0  0  0  0  0  0  0  0  0  0  0
   -6.9179   -2.4463    0.7453 H   0  0  0  0  0  0  0  0  0  0  0  0
   -6.8734   -1.2965    2.0961 H   0  0  0  0  0  0  0  0  0  0  0  0
   -9.3989    0.4021   -0.5979 H   0  0  0  0  0  0  0  0  0  0  0  0
   -9.5183   -0.7498   -1.9343 H   0  0  0  0  0  0  0  0  0  0  0  0
   -9.0477   -2.3123    1.9297 H   0  0  0  0  0  0  0  0  0  0  0  0
   -9.1105   -0.5529    1.7635 H   0  0  0  0  0  0  0  0  0  0  0  0
  -11.2149   -2.4790    0.8038 H   0  0  0  0  0  0  0  0  0  0  0  0
  -11.4123   -1.8241   -0.8152 H   0  0  0  0  0  0  0  0  0  0  0  0
  -11.2907   -0.7192    0.5709 H   0  0  0  0  0  0  0  0  0  0  0  0
   -2.1582    3.3625   -0.3959 H   0  0  0  0  0  0  0  0  0  0  0  0
   -0.5860   -0.3818    1.0875 H   0  0  0  0  0  0  0  0  0  0  0  0
    1.6045    0.5900    1.2653 H   0  0  0  0  0  0  0  0  0  0  0  0
    2.3344    4.1046    0.6023 H   0  0  0  0  0  0  0  0  0  0  0  0
    1.3814    4.3352   -1.9961 H   0  0  0  0  0  0  0  0  0  0  0  0
   -0.3648    4.5011   -2.3714 H   0  0  0  0  0  0  0  0  0  0  0  0
    0.5820    5.9166   -1.8627 H   0  0  0  0  0  0  0  0  0  0  0  0
    5.8126   -1.1105    0.3306 H   0  0  0  0  0  0  0  0  0  0  0  0
    6.8633   -5.2307    1.0963 H   0  0  0  0  0  0  0  0  0  0  0  0
    5.7118   -5.6398   -0.1868 H   0  0  0  0  0  0  0  0  0  0  0  0
    6.9471   -4.3953   -0.4671 H   0  0  0  0  0  0  0  0  0  0  0  0
    4.6882   -4.8450    2.8644 H   0  0  0  0  0  0  0  0  0  0  0  0
    3.3211   -3.8018    2.4296 H   0  0  0  0  0  0  0  0  0  0  0  0
    3.6158   -5.3072    1.5345 H   0  0  0  0  0  0  0  0  0  0  0  0
    3.3197   -4.9004   -0.8503 H   0  0  0  0  0  0  0  0  0  0  0  0
    3.4292   -0.1315   -2.2158 H   0  0  0  0  0  0  0  0  0  0  0  0
    6.6917    3.4785    0.5741 H   0  0  0  0  0  0  0  0  0  0  0  0
    1.9273   -4.1099   -2.7279 H   0  0  0  0  0  0  0  0  0  0  0  0
    1.9838   -1.7238   -3.4038 H   0  0  0  0  0  0  0  0  0  0  0  0
  1 36  1  0  0  0  0
  2  4  2  0  0  0  0
  2 30  1  0  0  0  0
  2 33  1  0  0  0  0
  2 34  1  0  0  0  0
  3 25  1  0  0  0  0
  3 29  1  0  0  0  0
  5 12  1  0  0  0  0
  5 17  1  0  0  0  0
  5 18  1  0  0  0  0
  6 15  1  0  0  0  0
  6 16  1  0  0  0  0
  6 21  1  0  0  0  0
  7 19  1  0  0  0  0
  7 20  1  0  0  0  0
  7 22  1  0  0  0  0
  8 27  1  0  0  0  0
  8 28  1  0  0  0  0
  8 64  1  0  0  0  0
  9 28  1  0  0  0  0
  9 32  2  0  0  0  0
 10 28  2  0  0  0  0
 10 37  1  0  0  0  0
 11 31  1  0  0  0  0
 11 32  1  0  0  0  0
 11 68  1  0  0  0  0
 12 13  1  0  0  0  0
 12 14  1  0  0  0  0
 12 41  1  0  0  0  0
 13 15  1  0  0  0  0
 13 42  1  0  0  0  0
 13 43  1  0  0  0  0
 14 16  1  0  0  0  0
 14 44  1  0  0  0  0
 14 45  1  0  0  0  0
 15 46  1  0  0  0  0
 15 47  1  0  0  0  0
 16 48  1  0  0  0  0
 16 49  1  0  0  0  0
 17 19  1  0  0  0  0
 17 50  1  0  0  0  0
 17 51  1  0  0  0  0
 18 20  1  0  0  0  0
 18 52  1  0  0  0  0
 18 53  1  0  0  0  0
 19 54  1  0  0  0  0
 19 55  1  0  0  0  0
 20 56  1  0  0  0  0
 20 57  1  0  0  0  0
 21 23  2  0  0  0  0
 21 24  1  0  0  0  0
 22 58  1  0  0  0  0
 22 59  1  0  0  0  0
 22 60  1  0  0  0  0
 23 25  1  0  0  0  0
 23 61  1  0  0  0  0
 24 26  2  0  0  0  0
 24 62  1  0  0  0  0
 25 27  2  0  0  0  0
 26 27  1  0  0  0  0
 26 63  1  0  0  0  0
 29 65  1  0  0  0  0
 29 66  1  0  0  0  0
 29 67  1  0  0  0  0
 30 31  1  0  0  0  0
 30 35  2  0  0  0  0
 31 38  2  0  0  0  0
 32 36  1  0  0  0  0
 33 69  1  0  0  0  0
 33 70  1  0  0  0  0
 33 71  1  0  0  0  0
 34 72  1  0  0  0  0
 34 73  1  0  0  0  0
 34 74  1  0  0  0  0
 35 39  1  0  0  0  0
 35 75  1  0  0  0  0
 36 37  2  0  0  0  0
 37 77  1  0  0  0  0
 38 40  1  0  0  0  0
 38 76  1  0  0  0  0
 39 40  2  0  0  0  0
 39 78  1  0  0  0  0
 40 79  1  0  0  0  0
M  END
> <PUBCHEM_COMPOUND_CID>
68165256

> <PUBCHEM_CONFORMER_RMSD>
1.2

> <PUBCHEM_CONFORMER_DIVERSEORDER>
1
55
102
80
75
104
86
92
31
30
29
3
101
68
111
60
103
73
94
95
37
56
43
47
87
100
27
77
57
4
33
66
10
89
54
90
74
18
83
110
46
99
41
96
61
58
39
2
28
107
85
32
23
71
78
6
16
88
20
62
44
45
42
109
49
12
108
40
26
51
105
79
70
48
98
72
106
35
11
50
76
59
93
13
91
53
81
24
64
22
38
67
36
82
84
8
25
19
14
65
97
34
17
21
52
9
69
63
15
7
5

> <PUBCHEM_MMFF94_PARTIAL_CHARGES>
46
1 -0.18
10 -0.62
11 -0.6
12 0.27
15 0.37
16 0.37
17 0.27
18 0.27
19 0.27
2 0.84
20 0.27
21 0.1
22 0.27
23 -0.15
24 -0.15
25 0.08
26 -0.15
27 0.1
28 0.72
29 0.28
3 -0.36
30 -0.14
31 0.1
32 0.41
35 -0.15
36 0.18
37 0.16
38 -0.15
39 -0.15
4 -0.7
40 -0.15
5 -0.81
6 -0.84
61 0.15
62 0.15
63 0.15
64 0.4
68 0.4
7 -0.81
75 0.15
76 0.15
77 0.15
78 0.15
79 0.15
8 -0.6
9 -0.62

> <PUBCHEM_EFFECTIVE_ROTOR_COUNT>
10.4

> <PUBCHEM_PHARMACOPHORE_FEATURES>
13
1 11 donor
1 3 acceptor
1 4 acceptor
1 5 cation
1 6 cation
1 7 cation
1 8 donor
4 8 9 10 28 cation
6 21 23 24 25 26 27 rings
6 30 31 35 38 39 40 rings
6 5 7 17 18 19 20 rings
6 6 12 13 14 15 16 rings
6 9 10 28 32 36 37 rings

> <PUBCHEM_HEAVY_ATOM_COUNT>
40

> <PUBCHEM_ATOM_DEF_STEREO_COUNT>
0

> <PUBCHEM_ATOM_UDEF_STEREO_COUNT>
0

> <PUBCHEM_BOND_DEF_STEREO_COUNT>
0

> <PUBCHEM_BOND_UDEF_STEREO_COUNT>
0

> <PUBCHEM_ISOTOPIC_ATOM_COUNT>
0

> <PUBCHEM_COMPONENT_COUNT>
1

> <PUBCHEM_CACTVS_TAUTO_COUNT>
9

> <PUBCHEM_CONFORMER_ID>
04101E8800000001

> <PUBCHEM_MMFF94_ENERGY>
145.0513

> <PUBCHEM_FEATURE_SELFOVERLAP>
65.975

> <PUBCHEM_SHAPE_FINGERPRINT>
11017883 126 18340770468067289813
11409948 41 18269258193310935703
117089 54 18337955571601505418
11828532 37 18041006162841827555
11966995 16 18333730204830753847
12202916 173 18334293193449020842
12522641 24 17274820307204959017
13383668 1 18259977168083798530
13553644 42 18041549240788658947
13560911 43 18339077078337182578
1361 2 18271809055432862024
13751561 76 18408610274717866747
13782708 43 18260552204328307271
14118638 360 18202573886532882321
14918310 93 18410006650083958645
15297060 5 15913328013987963374
15328684 2 16773534187263998571
15484559 13 18196947771691582420
19301679 30 18341613690027147193
19841028 212 18413671305840494515
20609170 109 16741952734892312106
21133410 58 18336545023402096095
24771750 20 17753905118117994629
4461854 278 17774996865707374886
45266715 3 18186801391641507994
50009960 94 18044080277463166066
9831232 110 18189059853714119091

> <PUBCHEM_SHAPE_MULTIPOLES>
782.29
27.1
6.39
1.66
72.61
0.04
-0.6
21.95
3.29
-13.45
-0.25
-0.74
1.33
0.93

> <PUBCHEM_SHAPE_SELFOVERLAP>
1635.645

> <PUBCHEM_SHAPE_VOLUME>
446.9

> <PUBCHEM_COORDINATE_TYPE>
2
5
10

$$$$
46188928
  -OEChem-11282412143D

 53 57  0     1  0  0  0  0  0999 V2000
    0.8855    2.9210   -1.6493 F   0  0  0  0  0  0  0  0  0  0  0  0
    2.6051    2.0221    3.4645 F   0  0  0  0  0  0  0  0  0  0  0  0
   -4.9899    2.1901   -2.0971 O   0  0  0  0  0  0  0  0  0  0  0  0
   -4.2272   -2.0513    0.6315 O   0  0  0  0  0  0  0  0  0  0  0  0
    3.0936   -0.5609   -0.8286 N   0  0  0  0  0  0  0  0  0  0  0  0
   -4.1321    0.1601    0.0229 N   0  0  0  0  0  0  0  0  0  0  0  0
    0.9368   -1.2160   -0.3605 N   0  0  0  0  0  0  0  0  0  0  0  0
    0.5156   -3.4974    0.2702 N   0  0  0  0  0  0  0  0  0  0  0  0
   -2.1705   -1.1150    0.0506 N   0  0  0  0  0  0  0  0  0  0  0  0
   -0.5130   -4.3136    0.6187 N   0  0  0  0  0  0  0  0  0  0  0  0
    2.7197    0.7880   -1.2643 C   0  0  2  0  0  0  0  0  0  0  0  0
    4.0043    1.3342   -1.9073 C   0  0  0  0  0  0  0  0  0  0  0  0
    5.1206    0.5865   -1.1919 C   0  0  0  0  0  0  0  0  0  0  0  0
    4.5257   -0.7989   -0.9699 C   0  0  0  0  0  0  0  0  0  0  0  0
    2.2128    1.6637   -0.1345 C   0  0  0  0  0  0  0  0  0  0  0  0
    2.2124   -1.5156   -0.4649 C   0  0  0  0  0  0  0  0  0  0  0  0
   -4.5968    2.3524   -0.7385 C   0  0  1  0  0  0  0  0  0  0  0  0
   -5.7169    1.8973    0.1898 C   0  0  0  0  0  0  0  0  0  0  0  0
   -3.4622    1.3828   -0.4289 C   0  0  0  0  0  0  0  0  0  0  0  0
   -5.5606    0.3830    0.1980 C   0  0  0  0  0  0  0  0  0  0  0  0
    1.3112    2.6948   -0.3984 C   0  0  0  0  0  0  0  0  0  0  0  0
    2.6499    1.4366    1.1704 C   0  0  0  0  0  0  0  0  0  0  0  0
    2.7512   -2.8948   -0.1940 C   0  0  0  0  0  0  0  0  0  0  0  0
   -3.5495   -1.0904    0.2624 C   0  0  0  0  0  0  0  0  0  0  0  0
    0.0753   -2.2038    0.0083 C   0  0  0  0  0  0  0  0  0  0  0  0
   -1.2876   -2.2124    0.2020 C   0  0  0  0  0  0  0  0  0  0  0  0
    1.8602   -3.8236    0.1635 C   0  0  0  0  0  0  0  0  0  0  0  0
    2.1853    2.2403    2.2115 C   0  0  0  0  0  0  0  0  0  0  0  0
    0.8468    3.4988    0.6426 C   0  0  0  0  0  0  0  0  0  0  0  0
    1.2839    3.2715    1.9476 C   0  0  0  0  0  0  0  0  0  0  0  0
   -1.5893   -3.5294    0.5736 C   0  0  0  0  0  0  0  0  0  0  0  0
    1.9413    0.7157   -2.0353 H   0  0  0  0  0  0  0  0  0  0  0  0
    4.0224    1.0643   -2.9710 H   0  0  0  0  0  0  0  0  0  0  0  0
    4.1138    2.4207   -1.8350 H   0  0  0  0  0  0  0  0  0  0  0  0
    5.3406    1.0658   -0.2309 H   0  0  0  0  0  0  0  0  0  0  0  0
    6.0472    0.5540   -1.7721 H   0  0  0  0  0  0  0  0  0  0  0  0
    4.7190   -1.4379   -1.8392 H   0  0  0  0  0  0  0  0  0  0  0  0
    4.9715   -1.2487   -0.0766 H   0  0  0  0  0  0  0  0  0  0  0  0
   -4.3180    3.3986   -0.5847 H   0  0  0  0  0  0  0  0  0  0  0  0
   -5.5469    2.2913    1.1987 H   0  0  0  0  0  0  0  0  0  0  0  0
   -6.7133    2.1962   -0.1479 H   0  0  0  0  0  0  0  0  0  0  0  0
   -2.8453    1.7389    0.4030 H   0  0  0  0  0  0  0  0  0  0  0  0
   -2.8305    1.1671   -1.2957 H   0  0  0  0  0  0  0  0  0  0  0  0
   -6.0765   -0.0811   -0.6500 H   0  0  0  0  0  0  0  0  0  0  0  0
   -5.9187   -0.0781    1.1232 H   0  0  0  0  0  0  0  0  0  0  0  0
    3.3585    0.6505    1.4129 H   0  0  0  0  0  0  0  0  0  0  0  0
    3.7992   -3.1394   -0.2891 H   0  0  0  0  0  0  0  0  0  0  0  0
    2.1417   -4.8475    0.3776 H   0  0  0  0  0  0  0  0  0  0  0  0
   -1.7035   -0.2572   -0.2253 H   0  0  0  0  0  0  0  0  0  0  0  0
   -4.2359    2.4527   -2.6522 H   0  0  0  0  0  0  0  0  0  0  0  0
    0.1444    4.3011    0.4368 H   0  0  0  0  0  0  0  0  0  0  0  0
    0.9223    3.8971    2.7583 H   0  0  0  0  0  0  0  0  0  0  0  0
   -2.5448   -3.9704    0.8172 H   0  0  0  0  0  0  0  0  0  0  0  0
  1 21  1  0  0  0  0
  2 28  1  0  0  0  0
  3 17  1  0  0  0  0
  3 50  1  0  0  0  0
  4 24  2  0  0  0  0
  5 11  1  0  0  0  0
  5 14  1  0  0  0  0
  5 16  1  0  0  0  0
  6 19  1  0  0  0  0
  6 20  1  0  0  0  0
  6 24  1  0  0  0  0
  7 16  2  0  0  0  0
  7 25  1  0  0  0  0
  8 10  1  0  0  0  0
  8 25  1  0  0  0  0
  8 27  1  0  0  0  0
  9 24  1  0  0  0  0
  9 26  1  0  0  0  0
  9 49  1  0  0  0  0
 10 31  2  0  0  0  0
 11 12  1  0  0  0  0
 11 15  1  0  0  0  0
 11 32  1  0  0  0  0
 12 13  1  0  0  0  0
 12 33  1  0  0  0  0
 12 34  1  0  0  0  0
 13 14  1  0  0  0  0
 13 35  1  0  0  0  0
 13 36  1  0  0  0  0
 14 37  1  0  0  0  0
 14 38  1  0  0  0  0
 15 21  2  0  0  0  0
 15 22  1  0  0  0  0
 16 23  1  0  0  0  0
 17 18  1  0  0  0  0
 17 19  1  0  0  0  0
 17 39  1  0  0  0  0
 18 20  1  0  0  0  0
 18 40  1  0  0  0  0
 18 41  1  0  0  0  0
 19 42  1  0  0  0  0
 19 43  1  0  0  0  0
 20 44  1  0  0  0  0
 20 45  1  0  0  0  0
 21 29  1  0  0  0  0
 22 28  2  0  0  0  0
 22 46  1  0  0  0  0
 23 27  2  0  0  0  0
 23 47  1  0  0  0  0
 25 26  2  0  0  0  0
 26 31  1  0  0  0  0
 27 48  1  0  0  0  0
 28 30  1  0  0  0  0
 29 30  2  0  0  0  0
 29 51  1  0  0  0  0
 30 52  1  0  0  0  0
 31 53  1  0  0  0  0
M  END
> <PUBCHEM_COMPOUND_CID>
46188928

> <PUBCHEM_CONFORMER_RMSD>
1

> <PUBCHEM_CONFORMER_DIVERSEORDER>
1
96
70
125
39
109
76
115
124
142
59
106
64
110
141
133
107
146
103
42
98
95
128
99
53
111
144
62
143
28
48
63
56
114
65
71
49
136
79
100
41
72
93
67
119
130
116
90
73
77
104
44
138
52
137
82
38
30
123
66
85
60
112
57
121
37
74
46
29
120
127
140
97
23
122
78
105
80
26
94
55
102
135
89
54
92
91
35
81
134
117
45
58
40
25
31
51
118
15
87
19
139
61
88
24
36
101
132
47
69
131
83
43
2
75
108
32
86
20
9
6
50
21
4
129
27
12
68
13
8
34
22
33
113
17
126
10
145
11
5
14
18
16
84
7
3

> <PUBCHEM_MMFF94_PARTIAL_CHARGES>
36
1 -0.19
10 -0.71
11 0.51
14 0.37
15 -0.14
16 0.49
17 0.28
19 0.3
2 -0.19
20 0.3
21 0.19
22 -0.15
23 -0.14
24 0.69
25 -0.03
26 0.06
27 -0.18
28 0.19
29 -0.15
3 -0.68
30 -0.15
31 0.14
4 -0.57
46 0.15
47 0.15
48 0.15
49 0.37
5 -0.79
50 0.4
51 0.15
52 0.15
53 0.15
6 -0.66
7 -0.58
8 0.6
9 -0.49

> <PUBCHEM_EFFECTIVE_ROTOR_COUNT>
7

> <PUBCHEM_PHARMACOPHORE_FEATURES>
11
1 10 acceptor
1 3 acceptor
1 3 donor
1 4 acceptor
1 9 donor
3 5 7 16 cation
5 5 11 12 13 14 rings
5 6 17 18 19 20 rings
5 8 10 25 26 31 rings
6 15 21 22 28 29 30 rings
6 7 8 16 23 25 27 rings

> <PUBCHEM_HEAVY_ATOM_COUNT>
31

> <PUBCHEM_ATOM_DEF_STEREO_COUNT>
2

> <PUBCHEM_ATOM_UDEF_STEREO_COUNT>
0

> <PUBCHEM_BOND_DEF_STEREO_COUNT>
0

> <PUBCHEM_BOND_UDEF_STEREO_COUNT>
0

> <PUBCHEM_ISOTOPIC_ATOM_COUNT>
0

> <PUBCHEM_COMPONENT_COUNT>
1

> <PUBCHEM_CACTVS_TAUTO_COUNT>
2

> <PUBCHEM_CONFORMER_ID>
02C0C98000000001

> <PUBCHEM_MMFF94_ENERGY>
75.7221

> <PUBCHEM_FEATURE_SELFOVERLAP>
55.949

> <PUBCHEM_SHAPE_FINGERPRINT>
10165383 225 18334306369944474085
10439779 11 18339915004612433442
10764073 3 18128228230641375240
12156800 1 16449793789827705456
12769317 202 18336825273922282735
12788726 201 18055084172843963118
12925494 130 18339645522044464297
13402501 40 18408891719813889813
13561361 72 18119812671441998099
14347329 18 18260554462674041948
14466204 15 18337954597134389938
14931854 50 18269845228739443413
14932702 115 18124340400048444780
150020 26 18335150760783957635
15082195 135 18268972230188566983
15145343 34 18200869583760439865
15238133 3 18408039620157066290
15322687 12 18410295800436317417
15351339 4 18267306430367442312
16992727 255 18116736152140212252
17093844 170 18410573985668857556
17921350 177 16951104202056921565
18608769 82 18263375840251010483
20567600 299 18270955744168207799
20764821 26 18408882975218484973
21033648 29 18338799017484594801
21860390 5 18199752440558411815
23536364 44 18054261840971875094
25019877 29 14101787318919511404
3298306 158 18411417315381919919
508706 21 18266174118443769407
513532 50 17774709896907380524
5252454 2 18408886231082802519
550186 83 17313095333048826068
5776283 40 17975716183364189924
7808743 9 18116725207771828350
9777508 108 18265616661833186723

> <PUBCHEM_SHAPE_MULTIPOLES>
581.79
10.51
5.67
1.77
13.45
3.19
0.91
-4.86
-3.76
-0.64
1.72
-1.59
-2.11
1.98

> <PUBCHEM_SHAPE_SELFOVERLAP>
1275.637

> <PUBCHEM_SHAPE_VOLUME>
315.3

> <PUBCHEM_COORDINATE_TYPE>
2
5
10

$$$$
57345941
  -OEChem-11282412143D

 86 90  0     0  0  0  0  0  0999 V2000
   -9.3083   -2.1002   -1.5849 F   0  0  0  0  0  0  0  0  0  0  0  0
    5.8808   -0.5306   -2.4838 O   0  0  0  0  0  0  0  0  0  0  0  0
    1.8031   -2.2492    1.7163 O   0  0  0  0  0  0  0  0  0  0  0  0
   -5.4068    2.6314   -0.2269 O   0  0  0  0  0  0  0  0  0  0  0  0
    3.7351    1.7730    0.7567 N   0  0  0  0  0  0  0  0  0  0  0  0
   -1.5772    0.7281    0.5914 N   0  0  0  0  0  0  0  0  0  0  0  0
   -2.5087    2.7432    0.4874 N   0  0  0  0  0  0  0  0  0  0  0  0
    2.2322   -4.1688    0.4710 N   0  0  0  0  0  0  0  0  0  0  0  0
   -3.8984    0.8393    0.0310 N   0  0  0  0  0  0  0  0  0  0  0  0
    6.0356    1.3603   -1.0130 C   0  0  0  0  0  0  0  0  0  0  0  0
   -1.4398   -0.7824    0.5270 C   0  0  0  0  0  0  0  0  0  0  0  0
    5.7719    0.4786    0.2122 C   0  0  0  0  0  0  0  0  0  0  0  0
    4.7188    1.9707   -1.5046 C   0  0  0  0  0  0  0  0  0  0  0  0
   -1.0459   -1.3778    1.8877 C   0  0  0  0  0  0  0  0  0  0  0  0
   -0.4541   -1.2203   -0.5675 C   0  0  0  0  0  0  0  0  0  0  0  0
   -0.0259   -3.3972    0.6940 C   0  0  0  0  0  0  0  0  0  0  0  0
    6.7207    0.5672   -2.1224 C   0  0  0  0  0  0  0  0  0  0  0  0
   -0.9281   -2.9018    1.8253 C   0  0  0  0  0  0  0  0  0  0  0  0
   -0.3490   -2.7436   -0.6506 C   0  0  0  0  0  0  0  0  0  0  0  0
    4.9959    1.2398    1.2892 C   0  0  0  0  0  0  0  0  0  0  0  0
    3.9782    2.6829   -0.3708 C   0  0  0  0  0  0  0  0  0  0  0  0
    2.9816    2.4532    1.8100 C   0  0  0  0  0  0  0  0  0  0  0  0
   -0.5721    1.6117    0.8904 C   0  0  0  0  0  0  0  0  0  0  0  0
    6.9414    1.4370   -3.3599 C   0  0  0  0  0  0  0  0  0  0  0  0
    8.0464   -0.0118   -1.6314 C   0  0  0  0  0  0  0  0  0  0  0  0
    1.4229   -3.1958    1.0322 C   0  0  0  0  0  0  0  0  0  0  0  0
    1.5229    2.5840    1.4607 C   0  0  0  0  0  0  0  0  0  0  0  0
   -2.7135    1.4515    0.3585 C   0  0  0  0  0  0  0  0  0  0  0  0
    0.7744    1.4298    1.2075 C   0  0  0  0  0  0  0  0  0  0  0  0
   -1.1787    2.8627    0.8190 C   0  0  0  0  0  0  0  0  0  0  0  0
    0.9424    3.8529    1.3969 C   0  0  0  0  0  0  0  0  0  0  0  0
   -0.4117    4.0114    1.0764 C   0  0  0  0  0  0  0  0  0  0  0  0
    3.6687   -4.1891    0.6275 C   0  0  0  0  0  0  0  0  0  0  0  0
    4.3323   -3.3664   -0.4693 C   0  0  0  0  0  0  0  0  0  0  0  0
    4.1858   -5.6222    0.6320 C   0  0  0  0  0  0  0  0  0  0  0  0
   -5.1547    1.4312   -0.2394 C   0  0  0  0  0  0  0  0  0  0  0  0
   -6.2545    0.4965   -0.5951 C   0  0  0  0  0  0  0  0  0  0  0  0
   -7.3099    0.9340   -1.3954 C   0  0  0  0  0  0  0  0  0  0  0  0
   -6.2310   -0.8180   -0.1291 C   0  0  0  0  0  0  0  0  0  0  0  0
   -8.3418    0.0572   -1.7297 C   0  0  0  0  0  0  0  0  0  0  0  0
   -7.2629   -1.6949   -0.4632 C   0  0  0  0  0  0  0  0  0  0  0  0
   -8.3183   -1.2574   -1.2635 C   0  0  0  0  0  0  0  0  0  0  0  0
    6.6939    2.1848   -0.7035 H   0  0  0  0  0  0  0  0  0  0  0  0
   -2.4180   -1.1880    0.2677 H   0  0  0  0  0  0  0  0  0  0  0  0
    6.7107    0.1386    0.6620 H   0  0  0  0  0  0  0  0  0  0  0  0
    5.2036   -0.4158   -0.0646 H   0  0  0  0  0  0  0  0  0  0  0  0
    4.0641    1.1981   -1.9277 H   0  0  0  0  0  0  0  0  0  0  0  0
    4.8983    2.7099   -2.2927 H   0  0  0  0  0  0  0  0  0  0  0  0
   -1.8157   -1.1181    2.6263 H   0  0  0  0  0  0  0  0  0  0  0  0
   -0.1233   -0.9441    2.2763 H   0  0  0  0  0  0  0  0  0  0  0  0
    0.5450   -0.8063   -0.4060 H   0  0  0  0  0  0  0  0  0  0  0  0
   -0.7882   -0.8310   -1.5375 H   0  0  0  0  0  0  0  0  0  0  0  0
   -0.1972   -4.4783    0.5980 H   0  0  0  0  0  0  0  0  0  0  0  0
   -1.9328   -3.3191    1.6779 H   0  0  0  0  0  0  0  0  0  0  0  0
   -0.5750   -3.2772    2.7936 H   0  0  0  0  0  0  0  0  0  0  0  0
    0.4004   -3.0108   -1.4055 H   0  0  0  0  0  0  0  0  0  0  0  0
   -1.3078   -3.1387   -1.0107 H   0  0  0  0  0  0  0  0  0  0  0  0
    5.6205    2.0464    1.6956 H   0  0  0  0  0  0  0  0  0  0  0  0
    4.7886    0.5427    2.1105 H   0  0  0  0  0  0  0  0  0  0  0  0
    3.0310    3.0539   -0.7794 H   0  0  0  0  0  0  0  0  0  0  0  0
    4.5578    3.5588   -0.0498 H   0  0  0  0  0  0  0  0  0  0  0  0
    3.4268    3.4269    2.0547 H   0  0  0  0  0  0  0  0  0  0  0  0
    3.0164    1.8704    2.7413 H   0  0  0  0  0  0  0  0  0  0  0  0
    7.5451    0.9014   -4.1028 H   0  0  0  0  0  0  0  0  0  0  0  0
    6.0030    1.6710   -3.8733 H   0  0  0  0  0  0  0  0  0  0  0  0
    7.4622    2.3685   -3.1152 H   0  0  0  0  0  0  0  0  0  0  0  0
    8.5907   -0.4821   -2.4596 H   0  0  0  0  0  0  0  0  0  0  0  0
    7.9039   -0.8106   -0.8962 H   0  0  0  0  0  0  0  0  0  0  0  0
    8.6938    0.7603   -1.2030 H   0  0  0  0  0  0  0  0  0  0  0  0
    1.2330    0.4514    1.2635 H   0  0  0  0  0  0  0  0  0  0  0  0
    6.3224   -1.0255   -3.1950 H   0  0  0  0  0  0  0  0  0  0  0  0
    1.5374    4.7415    1.5954 H   0  0  0  0  0  0  0  0  0  0  0  0
   -0.8535    5.0016    1.0290 H   0  0  0  0  0  0  0  0  0  0  0  0
    1.8155   -4.8659   -0.1396 H   0  0  0  0  0  0  0  0  0  0  0  0
   -3.8552   -0.1638   -0.0784 H   0  0  0  0  0  0  0  0  0  0  0  0
    3.9097   -3.7295    1.5937 H   0  0  0  0  0  0  0  0  0  0  0  0
    5.4164   -3.3190   -0.3239 H   0  0  0  0  0  0  0  0  0  0  0  0
    3.9437   -2.3429   -0.4781 H   0  0  0  0  0  0  0  0  0  0  0  0
    4.1385   -3.7955   -1.4588 H   0  0  0  0  0  0  0  0  0  0  0  0
    5.2699   -5.6467    0.7835 H   0  0  0  0  0  0  0  0  0  0  0  0
    3.7177   -6.2005    1.4361 H   0  0  0  0  0  0  0  0  0  0  0  0
    3.9613   -6.1300   -0.3126 H   0  0  0  0  0  0  0  0  0  0  0  0
   -7.3448    1.9523   -1.7735 H   0  0  0  0  0  0  0  0  0  0  0  0
   -5.4498   -1.1918    0.5259 H   0  0  0  0  0  0  0  0  0  0  0  0
   -9.1630    0.3968   -2.3539 H   0  0  0  0  0  0  0  0  0  0  0  0
   -7.2496   -2.7163   -0.0943 H   0  0  0  0  0  0  0  0  0  0  0  0
  1 42  1  0  0  0  0
  2 17  1  0  0  0  0
  2 71  1  0  0  0  0
  3 26  2  0  0  0  0
  4 36  2  0  0  0  0
  5 20  1  0  0  0  0
  5 21  1  0  0  0  0
  5 22  1  0  0  0  0
  6 11  1  0  0  0  0
  6 23  1  0  0  0  0
  6 28  1  0  0  0  0
  7 28  2  0  0  0  0
  7 30  1  0  0  0  0
  8 26  1  0  0  0  0
  8 33  1  0  0  0  0
  8 74  1  0  0  0  0
  9 28  1  0  0  0  0
  9 36  1  0  0  0  0
  9 75  1  0  0  0  0
 10 12  1  0  0  0  0
 10 13  1  0  0  0  0
 10 17  1  0  0  0  0
 10 43  1  0  0  0  0
 11 14  1  0  0  0  0
 11 15  1  0  0  0  0
 11 44  1  0  0  0  0
 12 20  1  0  0  0  0
 12 45  1  0  0  0  0
 12 46  1  0  0  0  0
 13 21  1  0  0  0  0
 13 47  1  0  0  0  0
 13 48  1  0  0  0  0
 14 18  1  0  0  0  0
 14 49  1  0  0  0  0
 14 50  1  0  0  0  0
 15 19  1  0  0  0  0
 15 51  1  0  0  0  0
 15 52  1  0  0  0  0
 16 18  1  0  0  0  0
 16 19  1  0  0  0  0
 16 26  1  0  0  0  0
 16 53  1  0  0  0  0
 17 24  1  0  0  0  0
 17 25  1  0  0  0  0
 18 54  1  0  0  0  0
 18 55  1  0  0  0  0
 19 56  1  0  0  0  0
 19 57  1  0  0  0  0
 20 58  1  0  0  0  0
 20 59  1  0  0  0  0
 21 60  1  0  0  0  0
 21 61  1  0  0  0  0
 22 27  1  0  0  0  0
 22 62  1  0  0  0  0
 22 63  1  0  0  0  0
 23 29  1  0  0  0  0
 23 30  2  0  0  0  0
 24 64  1  0  0  0  0
 24 65  1  0  0  0  0
 24 66  1  0  0  0  0
 25 67  1  0  0  0  0
 25 68  1  0  0  0  0
 25 69  1  0  0  0  0
 27 29  2  0  0  0  0
 27 31  1  0  0  0  0
 29 70  1  0  0  0  0
 30 32  1  0  0  0  0
 31 32  2  0  0  0  0
 31 72  1  0  0  0  0
 32 73  1  0  0  0  0
 33 34  1  0  0  0  0
 33 35  1  0  0  0  0
 33 76  1  0  0  0  0
 34 77  1  0  0  0  0
 34 78  1  0  0  0  0
 34 79  1  0  0  0  0
 35 80  1  0  0  0  0
 35 81  1  0  0  0  0
 35 82  1  0  0  0  0
 36 37  1  0  0  0  0
 37 38  2  0  0  0  0
 37 39  1  0  0  0  0
 38 40  1  0  0  0  0
 38 83  1  0  0  0  0
 39 41  2  0  0  0  0
 39 84  1  0  0  0  0
 40 42  2  0  0  0  0
 40 85  1  0  0  0  0
 41 42  1  0  0  0  0
 41 86  1  0  0  0  0
M  END
> <PUBCHEM_COMPOUND_CID>
57345941

> <PUBCHEM_CONFORMER_RMSD>
1.2

> <PUBCHEM_CONFORMER_DIVERSEORDER>
1
17
52
94
83
41
96
89
16
44
40
93
55
25
92
86
56
72
62
80
43
49
60
61
85
38
75
33
63
53
99
22
73
87
65
58
45
21
47
82
28
15
14
29
74
12
64
20
42
37
67
88
78
35
66
68
79
91
50
97
84
30
100
19
76
51
23
39
6
101
10
36
4
71
69
98
54
27
5
90
95
31
9
34
81
57
32
70
7
24
59
3
11
8
46
77
18
13
48
26
2

> <PUBCHEM_MMFF94_PARTIAL_CHARGES>
41
1 -0.19
11 0.26
16 0.06
17 0.28
2 -0.68
20 0.27
21 0.27
22 0.41
23 -0.15
26 0.57
27 -0.14
28 0.25
29 -0.15
3 -0.57
30 0.23
31 -0.15
32 -0.15
33 0.3
36 0.54
37 0.09
38 -0.15
39 -0.15
4 -0.57
40 -0.15
41 -0.15
42 0.19
5 -0.81
6 0.05
7 -0.57
70 0.15
71 0.4
72 0.15
73 0.15
74 0.37
75 0.37
8 -0.73
83 0.15
84 0.15
85 0.15
86 0.15
9 -0.49

> <PUBCHEM_EFFECTIVE_ROTOR_COUNT>
12.4

> <PUBCHEM_PHARMACOPHORE_FEATURES>
14
1 2 acceptor
1 2 donor
1 3 acceptor
1 4 acceptor
1 5 cation
1 8 donor
1 9 donor
3 17 24 25 hydrophobe
3 33 34 35 hydrophobe
5 6 7 23 28 30 rings
6 11 14 15 16 18 19 rings
6 23 27 29 30 31 32 rings
6 37 38 39 40 41 42 rings
6 5 10 12 13 20 21 rings

> <PUBCHEM_HEAVY_ATOM_COUNT>
42

> <PUBCHEM_ATOM_DEF_STEREO_COUNT>
0

> <PUBCHEM_ATOM_UDEF_STEREO_COUNT>
0

> <PUBCHEM_BOND_DEF_STEREO_COUNT>
0

> <PUBCHEM_BOND_UDEF_STEREO_COUNT>
0

> <PUBCHEM_ISOTOPIC_ATOM_COUNT>
0

> <PUBCHEM_COMPONENT_COUNT>
1

> <PUBCHEM_CACTVS_TAUTO_COUNT>
6

> <PUBCHEM_CONFORMER_ID>
036B079500000001

> <PUBCHEM_MMFF94_ENERGY>
94.6242

> <PUBCHEM_FEATURE_SELFOVERLAP>
71.154

> <PUBCHEM_SHAPE_FINGERPRINT>
11578080 2 17678999532236169245
11991303 11 17750228274478479707
12124843 1 18269009626188979180
12202916 173 18131074840364931628
12522641 126 18334853866632593874
12539765 74 16298935482255451833
13383665 225 17895751795764781557
13617811 41 18335136497061171036
14931854 50 18340221704432785300
15131766 46 14707774064422866308
15160629 131 17773615848515260230
15160629 35 12541280878232725342
15264996 154 18266173925440124258
15320294 125 17969756693619245522
15351339 4 18338240371679234914
15781502 685 18337680720050109340
15840311 113 13190608430962395001
17627616 140 18192447273119724194
2026 5 17703794721589755861
21133410 230 17826547575237794379
21133410 52 17975415712596922222
21344244 181 18059856220199818453
21344244 246 18410285896299898267
21781051 124 18261677098859303769
21792938 131 18341885260613438779
21814621 53 16056881312646040753
22899556 105 18343586204938363295
23569943 247 17702399363476212615
27425 322 16515692186557954616
3298306 158 18411138047907649440
3383291 50 18202284731716347914
3504750 166 16678082000232261266
4874694 18 18268432511871901332
5265222 85 18117294751117727444
58260988 647 17060348443419552832
59755656 215 18339070588789011993

> <PUBCHEM_SHAPE_MULTIPOLES>
814.55
22.19
6.15
2.16
29.48
6
-1.08
1.36
-21.41
-6.37
2.97
-2.95
-0.56
-1.94

> <PUBCHEM_SHAPE_SELFOVERLAP>
1734.912

> <PUBCHEM_SHAPE_VOLUME>
455.6

> <PUBCHEM_COORDINATE_TYPE>
2
5
10

$$$$
56960363
  -OEChem-11282412143D

 65 68  0     1  0  0  0  0  0999 V2000
    4.6562    2.5168   -2.1927 Cl  0  0  0  0  0  0  0  0  0  0  0  0
    7.1349   -0.6244    1.5068 Cl  0  0  0  0  0  0  0  0  0  0  0  0
    5.5195    4.6726   -0.3993 F   0  0  0  0  0  0  0  0  0  0  0  0
   -6.2946    0.0810    2.6331 O   0  0  0  0  0  0  0  0  0  0  0  0
    5.3326   -1.2683   -0.1869 O   0  0  0  0  0  0  0  0  0  0  0  0
    0.6427    0.2924    0.7202 O   0  0  0  0  0  0  0  0  0  0  0  0
   -6.6701    0.7208    0.4159 N   0  0  0  0  0  0  0  0  0  0  0  0
   -8.5846    0.9850   -1.6903 N   0  0  0  0  0  0  0  0  0  0  0  0
   -0.6785   -1.6186    0.3564 N   0  0  0  0  0  0  0  0  0  0  0  0
    1.5734   -2.9581   -0.2169 N   0  0  0  0  0  0  0  0  0  0  0  0
    2.6590   -3.7183   -0.5221 N   0  0  0  0  0  0  0  0  0  0  0  0
    5.0036   -3.9553   -0.8281 N   0  0  0  0  0  0  0  0  0  0  0  0
   -9.0312    0.7440   -0.3120 C   0  0  1  0  0  0  0  0  0  0  0  0
   -7.2920    0.3376   -1.9493 C   0  0  2  0  0  0  0  0  0  0  0  0
   -7.9958    1.2771    0.6839 C   0  0  0  0  0  0  0  0  0  0  0  0
   -6.2210    0.8493   -0.9762 C   0  0  0  0  0  0  0  0  0  0  0  0
  -10.3830    1.4199   -0.0963 C   0  0  0  0  0  0  0  0  0  0  0  0
   -6.8767    0.6057   -3.3939 C   0  0  0  0  0  0  0  0  0  0  0  0
   -5.9189    0.1890    1.4666 C   0  0  0  0  0  0  0  0  0  0  0  0
   -4.5578   -0.2813    1.1773 C   0  0  0  0  0  0  0  0  0  0  0  0
   -4.3430   -1.6048    0.7931 C   0  0  0  0  0  0  0  0  0  0  0  0
   -3.4795    0.5967    1.2878 C   0  0  0  0  0  0  0  0  0  0  0  0
   -3.0500   -2.0504    0.5189 C   0  0  0  0  0  0  0  0  0  0  0  0
   -2.1865    0.1512    1.0137 C   0  0  0  0  0  0  0  0  0  0  0  0
   -1.9717   -1.1724    0.6293 C   0  0  0  0  0  0  0  0  0  0  0  0
    5.5645   -0.1759   -1.0773 C   0  0  1  0  0  0  0  0  0  0  0  0
    5.9259    1.0517   -0.2757 C   0  0  0  0  0  0  0  0  0  0  0  0
    0.5164   -0.8886    0.4145 C   0  0  0  0  0  0  0  0  0  0  0  0
    6.6573   -0.5540   -2.0708 C   0  0  0  0  0  0  0  0  0  0  0  0
    1.7482   -1.6557    0.0921 C   0  0  0  0  0  0  0  0  0  0  0  0
    4.0928   -1.8232   -0.1962 C   0  0  0  0  0  0  0  0  0  0  0  0
    5.5440    2.3160   -0.7242 C   0  0  0  0  0  0  0  0  0  0  0  0
    6.6420    0.9209    0.9142 C   0  0  0  0  0  0  0  0  0  0  0  0
    2.9882   -1.0496    0.1142 C   0  0  0  0  0  0  0  0  0  0  0  0
    3.8841   -3.1516   -0.5083 C   0  0  0  0  0  0  0  0  0  0  0  0
    5.8784    3.4495    0.0168 C   0  0  0  0  0  0  0  0  0  0  0  0
    6.9764    2.0543    1.6553 C   0  0  0  0  0  0  0  0  0  0  0  0
    6.5944    3.3185    1.2067 C   0  0  0  0  0  0  0  0  0  0  0  0
   -9.1605   -0.3360   -0.1645 H   0  0  0  0  0  0  0  0  0  0  0  0
   -7.4092   -0.7465   -1.8232 H   0  0  0  0  0  0  0  0  0  0  0  0
   -7.9040    2.3684    0.6118 H   0  0  0  0  0  0  0  0  0  0  0  0
   -8.3065    1.0466    1.7087 H   0  0  0  0  0  0  0  0  0  0  0  0
   -5.2845    0.3128   -1.1457 H   0  0  0  0  0  0  0  0  0  0  0  0
   -6.0167    1.9147   -1.1432 H   0  0  0  0  0  0  0  0  0  0  0  0
   -8.4986    1.9894   -1.8485 H   0  0  0  0  0  0  0  0  0  0  0  0
  -11.1305    1.0331   -0.7978 H   0  0  0  0  0  0  0  0  0  0  0  0
  -10.7504    1.2316    0.9182 H   0  0  0  0  0  0  0  0  0  0  0  0
  -10.3193    2.5052   -0.2344 H   0  0  0  0  0  0  0  0  0  0  0  0
   -5.9288    0.1063   -3.6213 H   0  0  0  0  0  0  0  0  0  0  0  0
   -7.6288    0.2261   -4.0945 H   0  0  0  0  0  0  0  0  0  0  0  0
   -6.7465    1.6769   -3.5850 H   0  0  0  0  0  0  0  0  0  0  0  0
   -5.1764   -2.2968    0.7034 H   0  0  0  0  0  0  0  0  0  0  0  0
   -3.6374    1.6300    1.5863 H   0  0  0  0  0  0  0  0  0  0  0  0
   -2.8973   -3.0844    0.2202 H   0  0  0  0  0  0  0  0  0  0  0  0
   -1.4056    0.8906    1.1215 H   0  0  0  0  0  0  0  0  0  0  0  0
   -0.6030   -2.5971    0.0862 H   0  0  0  0  0  0  0  0  0  0  0  0
    4.6539   -0.0048   -1.6619 H   0  0  0  0  0  0  0  0  0  0  0  0
    7.5933   -0.8084   -1.5614 H   0  0  0  0  0  0  0  0  0  0  0  0
    6.8639    0.2567   -2.7766 H   0  0  0  0  0  0  0  0  0  0  0  0
    6.3624   -1.4422   -2.6401 H   0  0  0  0  0  0  0  0  0  0  0  0
    3.1028   -0.0031    0.3767 H   0  0  0  0  0  0  0  0  0  0  0  0
    7.5340    1.9698    2.5846 H   0  0  0  0  0  0  0  0  0  0  0  0
    6.8545    4.2012    1.7835 H   0  0  0  0  0  0  0  0  0  0  0  0
    4.8266   -4.9241   -1.0625 H   0  0  0  0  0  0  0  0  0  0  0  0
    5.8237   -3.5067   -1.2171 H   0  0  0  0  0  0  0  0  0  0  0  0
  1 32  1  0  0  0  0
  2 33  1  0  0  0  0
  3 36  1  0  0  0  0
  4 19  2  0  0  0  0
  5 26  1  0  0  0  0
  5 31  1  0  0  0  0
  6 28  2  0  0  0  0
  7 15  1  0  0  0  0
  7 16  1  0  0  0  0
  7 19  1  0  0  0  0
  8 13  1  0  0  0  0
  8 14  1  0  0  0  0
  8 45  1  0  0  0  0
  9 25  1  0  0  0  0
  9 28  1  0  0  0  0
  9 56  1  0  0  0  0
 10 11  1  0  0  0  0
 10 30  2  0  0  0  0
 11 35  2  0  0  0  0
 12 35  1  0  0  0  0
 12 64  1  0  0  0  0
 12 65  1  0  0  0  0
 13 15  1  0  0  0  0
 13 17  1  0  0  0  0
 13 39  1  0  0  0  0
 14 16  1  0  0  0  0
 14 18  1  0  0  0  0
 14 40  1  0  0  0  0
 15 41  1  0  0  0  0
 15 42  1  0  0  0  0
 16 43  1  0  0  0  0
 16 44  1  0  0  0  0
 17 46  1  0  0  0  0
 17 47  1  0  0  0  0
 17 48  1  0  0  0  0
 18 49  1  0  0  0  0
 18 50  1  0  0  0  0
 18 51  1  0  0  0  0
 19 20  1  0  0  0  0
 20 21  2  0  0  0  0
 20 22  1  0  0  0  0
 21 23  1  0  0  0  0
 21 52  1  0  0  0  0
 22 24  2  0  0  0  0
 22 53  1  0  0  0  0
 23 25  2  0  0  0  0
 23 54  1  0  0  0  0
 24 25  1  0  0  0  0
 24 55  1  0  0  0  0
 26 27  1  0  0  0  0
 26 29  1  0  0  0  0
 26 57  1  0  0  0  0
 27 32  1  0  0  0  0
 27 33  2  0  0  0  0
 28 30  1  0  0  0  0
 29 58  1  0  0  0  0
 29 59  1  0  0  0  0
 29 60  1  0  0  0  0
 30 34  1  0  0  0  0
 31 34  2  0  0  0  0
 31 35  1  0  0  0  0
 32 36  2  0  0  0  0
 33 37  1  0  0  0  0
 34 61  1  0  0  0  0
 36 38  1  0  0  0  0
 37 38  2  0  0  0  0
 37 62  1  0  0  0  0
 38 63  1  0  0  0  0
M  END
> <PUBCHEM_COMPOUND_CID>
56960363

> <PUBCHEM_CONFORMER_RMSD>
1.2

> <PUBCHEM_CONFORMER_DIVERSEORDER>
1
66
17
73
98
35
126
45
128
27
51
42
104
39
12
85
86
58
65
116
95
43
20
80
68
82
70
118
90
129
113
106
69
38
40
28
88
133
60
135
91
61
54
78
74
114
122
119
97
33
9
130
76
102
3
75
25
115
136
36
100
81
123
109
24
111
55
31
30
8
96
37
11
57
49
93
64
56
89
132
105
18
83
22
112
99
46
47
5
101
52
50
84
71
79
124
19
92
62
121
67
63
6
59
108
7
87
107
4
15
125
2
48
77
134
44
53
41
13
14
29
32
103
26
16
120
10
23
110
21
72
34
131
94
117
127

> <PUBCHEM_MMFF94_PARTIAL_CHARGES>
46
1 -0.18
10 -0.31
11 -0.31
12 -0.9
13 0.27
14 0.27
15 0.3
16 0.3
19 0.54
2 -0.18
20 0.09
21 -0.15
22 -0.15
23 -0.15
24 -0.15
25 0.12
26 0.42
27 -0.14
28 0.54
3 -0.19
30 0.4
31 0.08
32 0.18
33 0.18
34 -0.15
35 0.41
36 0.19
37 -0.15
38 -0.15
4 -0.57
45 0.36
5 -0.36
52 0.15
53 0.15
54 0.15
55 0.15
56 0.37
6 -0.57
61 0.15
62 0.15
63 0.15
64 0.4
65 0.4
7 -0.66
8 -0.9
9 -0.55

> <PUBCHEM_EFFECTIVE_ROTOR_COUNT>
9.2

> <PUBCHEM_PHARMACOPHORE_FEATURES>
13
1 10 acceptor
1 12 donor
1 4 acceptor
1 5 acceptor
1 6 acceptor
1 8 cation
1 8 donor
1 9 donor
3 11 12 35 cation
6 10 11 30 31 34 35 rings
6 20 21 22 23 24 25 rings
6 27 32 33 36 37 38 rings
6 7 8 13 14 15 16 rings

> <PUBCHEM_HEAVY_ATOM_COUNT>
38

> <PUBCHEM_ATOM_DEF_STEREO_COUNT>
3

> <PUBCHEM_ATOM_UDEF_STEREO_COUNT>
0

> <PUBCHEM_BOND_DEF_STEREO_COUNT>
0

> <PUBCHEM_BOND_UDEF_STEREO_COUNT>
0

> <PUBCHEM_ISOTOPIC_ATOM_COUNT>
0

> <PUBCHEM_COMPONENT_COUNT>
1

> <PUBCHEM_CACTVS_TAUTO_COUNT>
15

> <PUBCHEM_CONFORMER_ID>
0365256B00000001

> <PUBCHEM_MMFF94_ENERGY>
121.4642

> <PUBCHEM_FEATURE_SELFOVERLAP>
65.973

> <PUBCHEM_SHAPE_FINGERPRINT>
10168742 298 15195566797912487317
10533779 1 18199180871344683800
10533779 47 9511458957890706285
10554248 39 18131073688470223079
10835480 77 18410296916980374891
11135609 127 18343298198033566960
11211813 74 18411982447189660457
11386260 185 18271253720931412262
11456790 92 13767932312641069709
11761917 87 8718558245356713420
12144603 126 17704073963684807313
12422481 6 17749103444155202436
12664476 115 18334017168880877500
12888983 3 17967799527835059357
13008946 282 18339910538304888448
13617811 41 18201716258615034688
13782708 43 10807945837996687154
13878862 14 18408600345312205766
14117953 113 18342183280827923116
14344974 52 18260546733162172001
14429380 56 18413105056829482492
14598715 104 17458622307535084533
15082195 135 18342461409249423114
15274700 259 17968643961919355157
15399244 5 15719390604315297847
15400415 2 18338527433823640506
15684393 108 10879990285535036640
15840311 113 18413111649614825310
16096371 109 18409175402873477786
17134984 74 12607410996938534436
17686467 74 17822578313636112539
20715895 44 18341617070862007466
21033648 29 17603305964560738307
21585482 111 18262803003341487220
21772523 7 18116129170303697197
21792934 111 17967529047625686288
21859007 373 17240758446198807783
23522609 53 17202506436742256363
3534868 343 17702115668460703162
3918712 181 18270119149285833968
397638 26 17312819394558545529
4169191 19 18341336660298922369
4408954 64 16517064278670943056
44249763 50 17749388179107633327
4625314 4 18410016537120506883
4760202 170 18412256230054588821
49967989 163 16128079170722616127
504579 68 17632574951106694799
5109719 28 18196108835364917474
57634706 306 18334573563939245155
6636735 143 17458349688184982915
6898599 12 18058451069978235703
70634741 139 18341610482319806875
9962374 69 17844808084222286238

> <PUBCHEM_SHAPE_MULTIPOLES>
730.99
32.05
4.01
2.07
50.14
0.17
1.05
21.53
4.12
-11.14
0.68
2.16
0.78
2.2

> <PUBCHEM_SHAPE_SELFOVERLAP>
1553.964

> <PUBCHEM_SHAPE_VOLUME>
408.8

> <PUBCHEM_COORDINATE_TYPE>
2
5
10

$$$$
118861389
  -OEChem-11282412143D

 72 75  0     0  0  0  0  0  0999 V2000
    6.4651   -3.0891    0.7184 F   0  0  0  0  0  0  0  0  0  0  0  0
    5.0518   -4.1796   -0.5421 F   0  0  0  0  0  0  0  0  0  0  0  0
    4.5748   -3.7910    1.5503 F   0  0  0  0  0  0  0  0  0  0  0  0
    3.1150   -2.2079   -0.1918 O   0  0  0  0  0  0  0  0  0  0  0  0
   -1.9791    1.3620   -2.0227 O   0  0  0  0  0  0  0  0  0  0  0  0
    2.9396    2.3746   -1.1319 N   0  0  0  0  0  0  0  0  0  0  0  0
   -5.9489   -0.2277    0.5851 N   0  0  0  0  0  0  0  0  0  0  0  0
    4.3407    3.8254    1.9835 N   0  0  0  0  0  0  0  0  0  0  0  0
    3.0172    0.0540   -0.6569 N   0  0  0  0  0  0  0  0  0  0  0  0
    0.3801   -2.5380   -0.7297 N   0  0  0  0  0  0  0  0  0  0  0  0
   -1.8044   -1.9194   -0.1378 N   0  0  0  0  0  0  0  0  0  0  0  0
    0.1980    2.1969   -1.7048 N   0  0  0  0  0  0  0  0  0  0  0  0
   -1.2026   -4.2383   -0.3987 N   0  0  0  0  0  0  0  0  0  0  0  0
    3.0058    3.2551    0.0128 C   0  0  0  0  0  0  0  0  0  0  0  0
   -3.7753    0.0183    1.0236 C   0  0  0  0  0  0  0  0  0  0  0  0
   -5.0185    0.6508    1.0931 C   0  0  0  0  0  0  0  0  0  0  0  0
   -3.9926   -1.2687    0.4567 C   0  0  0  0  0  0  0  0  0  0  0  0
    4.2430    2.9281    0.8391 C   0  0  0  0  0  0  0  0  0  0  0  0
    2.2798    1.1235   -1.0312 C   0  0  0  0  0  0  0  0  0  0  0  0
   -5.3384   -1.3904    0.1979 C   0  0  0  0  0  0  0  0  0  0  0  0
    0.9259    1.0692   -1.3201 C   0  0  0  0  0  0  0  0  0  0  0  0
   -3.0571   -2.3174    0.1670 C   0  0  0  0  0  0  0  0  0  0  0  0
   -2.6368    0.7079    1.4857 C   0  0  0  0  0  0  0  0  0  0  0  0
   -5.1807    1.9436    1.6037 C   0  0  0  0  0  0  0  0  0  0  0  0
    3.5428    2.7792   -2.3817 C   0  0  0  0  0  0  0  0  0  0  0  0
    1.0123   -1.2851   -0.8359 C   0  0  0  0  0  0  0  0  0  0  0  0
    0.2874   -0.1618   -1.2181 C   0  0  0  0  0  0  0  0  0  0  0  0
   -7.3690    0.0253    0.4700 C   0  0  0  0  0  0  0  0  0  0  0  0
    2.3625   -1.1255   -0.5688 C   0  0  0  0  0  0  0  0  0  0  0  0
   -2.7839    2.0017    1.9990 C   0  0  0  0  0  0  0  0  0  0  0  0
   -4.0372    2.6081    2.0561 C   0  0  0  0  0  0  0  0  0  0  0  0
    3.4365    3.3981    3.0530 C   0  0  0  0  0  0  0  0  0  0  0  0
    5.7179    3.8842    2.4770 C   0  0  0  0  0  0  0  0  0  0  0  0
   -0.9408   -2.9174   -0.4061 C   0  0  0  0  0  0  0  0  0  0  0  0
   -3.4530   -3.6387    0.2088 C   0  0  0  0  0  0  0  0  0  0  0  0
   -2.4737   -4.5651   -0.0860 C   0  0  0  0  0  0  0  0  0  0  0  0
    4.4933   -1.9693    0.0661 C   0  0  0  0  0  0  0  0  0  0  0  0
   -1.1641    2.2770   -2.0227 C   0  0  0  0  0  0  0  0  0  0  0  0
    5.1548   -3.2680    0.4479 C   0  0  0  0  0  0  0  0  0  0  0  0
   -1.5626    3.6679   -2.3863 C   0  0  0  0  0  0  0  0  0  0  0  0
   -2.8259    3.9475   -2.7218 C   0  0  0  0  0  0  0  0  0  0  0  0
    3.0389    4.3014   -0.3178 H   0  0  0  0  0  0  0  0  0  0  0  0
    2.0884    3.1561    0.6043 H   0  0  0  0  0  0  0  0  0  0  0  0
    4.2567    1.8752    1.1497 H   0  0  0  0  0  0  0  0  0  0  0  0
    5.1163    3.0602    0.1852 H   0  0  0  0  0  0  0  0  0  0  0  0
   -5.9195   -2.1945   -0.2358 H   0  0  0  0  0  0  0  0  0  0  0  0
   -1.6499    0.2560    1.4574 H   0  0  0  0  0  0  0  0  0  0  0  0
   -6.1535    2.4214    1.6507 H   0  0  0  0  0  0  0  0  0  0  0  0
    4.1078    3.7118   -2.2780 H   0  0  0  0  0  0  0  0  0  0  0  0
    2.7783    2.9359   -3.1497 H   0  0  0  0  0  0  0  0  0  0  0  0
    4.2392    2.0127   -2.7387 H   0  0  0  0  0  0  0  0  0  0  0  0
   -0.7468   -0.2944   -1.4868 H   0  0  0  0  0  0  0  0  0  0  0  0
   -7.7673    0.2159    1.4698 H   0  0  0  0  0  0  0  0  0  0  0  0
   -7.5129    0.8941   -0.1773 H   0  0  0  0  0  0  0  0  0  0  0  0
   -7.8642   -0.8464    0.0347 H   0  0  0  0  0  0  0  0  0  0  0  0
   -1.9091    2.5382    2.3568 H   0  0  0  0  0  0  0  0  0  0  0  0
   -4.1283    3.6138    2.4583 H   0  0  0  0  0  0  0  0  0  0  0  0
    1.0128   -3.3308   -0.7808 H   0  0  0  0  0  0  0  0  0  0  0  0
    3.6591    2.3837    3.4042 H   0  0  0  0  0  0  0  0  0  0  0  0
    3.5156    4.0770    3.9102 H   0  0  0  0  0  0  0  0  0  0  0  0
    2.3891    3.4333    2.7388 H   0  0  0  0  0  0  0  0  0  0  0  0
    6.0826    2.9022    2.7999 H   0  0  0  0  0  0  0  0  0  0  0  0
    6.3907    4.2660    1.7010 H   0  0  0  0  0  0  0  0  0  0  0  0
    5.7949    4.5766    3.3228 H   0  0  0  0  0  0  0  0  0  0  0  0
   -4.4523   -3.9664    0.4663 H   0  0  0  0  0  0  0  0  0  0  0  0
    0.7399    3.0570   -1.7521 H   0  0  0  0  0  0  0  0  0  0  0  0
   -2.6894   -5.6282   -0.0751 H   0  0  0  0  0  0  0  0  0  0  0  0
    4.6051   -1.2554    0.8909 H   0  0  0  0  0  0  0  0  0  0  0  0
    4.9839   -1.5716   -0.8303 H   0  0  0  0  0  0  0  0  0  0  0  0
   -0.8144    4.4528   -2.3759 H   0  0  0  0  0  0  0  0  0  0  0  0
   -3.1049    4.9626   -2.9845 H   0  0  0  0  0  0  0  0  0  0  0  0
   -3.6054    3.1941   -2.7444 H   0  0  0  0  0  0  0  0  0  0  0  0
  1 39  1  0  0  0  0
  2 39  1  0  0  0  0
  3 39  1  0  0  0  0
  4 29  1  0  0  0  0
  4 37  1  0  0  0  0
  5 38  2  0  0  0  0
  6 14  1  0  0  0  0
  6 19  1  0  0  0  0
  6 25  1  0  0  0  0
  7 16  1  0  0  0  0
  7 20  1  0  0  0  0
  7 28  1  0  0  0  0
  8 18  1  0  0  0  0
  8 32  1  0  0  0  0
  8 33  1  0  0  0  0
  9 19  2  0  0  0  0
  9 29  1  0  0  0  0
 10 26  1  0  0  0  0
 10 34  1  0  0  0  0
 10 58  1  0  0  0  0
 11 22  2  0  0  0  0
 11 34  1  0  0  0  0
 12 21  1  0  0  0  0
 12 38  1  0  0  0  0
 12 66  1  0  0  0  0
 13 34  2  0  0  0  0
 13 36  1  0  0  0  0
 14 18  1  0  0  0  0
 14 42  1  0  0  0  0
 14 43  1  0  0  0  0
 15 16  1  0  0  0  0
 15 17  1  0  0  0  0
 15 23  2  0  0  0  0
 16 24  2  0  0  0  0
 17 20  2  0  0  0  0
 17 22  1  0  0  0  0
 18 44  1  0  0  0  0
 18 45  1  0  0  0  0
 19 21  1  0  0  0  0
 20 46  1  0  0  0  0
 21 27  2  0  0  0  0
 22 35  1  0  0  0  0
 23 30  1  0  0  0  0
 23 47  1  0  0  0  0
 24 31  1  0  0  0  0
 24 48  1  0  0  0  0
 25 49  1  0  0  0  0
 25 50  1  0  0  0  0
 25 51  1  0  0  0  0
 26 27  1  0  0  0  0
 26 29  2  0  0  0  0
 27 52  1  0  0  0  0
 28 53  1  0  0  0  0
 28 54  1  0  0  0  0
 28 55  1  0  0  0  0
 30 31  2  0  0  0  0
 30 56  1  0  0  0  0
 31 57  1  0  0  0  0
 32 59  1  0  0  0  0
 32 60  1  0  0  0  0
 32 61  1  0  0  0  0
 33 62  1  0  0  0  0
 33 63  1  0  0  0  0
 33 64  1  0  0  0  0
 35 36  2  0  0  0  0
 35 65  1  0  0  0  0
 36 67  1  0  0  0  0
 37 39  1  0  0  0  0
 37 68  1  0  0  0  0
 37 69  1  0  0  0  0
 38 40  1  0  0  0  0
 40 41  2  0  0  0  0
 40 70  1  0  0  0  0
 41 71  1  0  0  0  0
 41 72  1  0  0  0  0
M  END
> <PUBCHEM_COMPOUND_CID>
118861389

> <PUBCHEM_CONFORMER_RMSD>
1.2

> <PUBCHEM_CONFORMER_DIVERSEORDER>
1
67
47
30
25
19
96
28
86
53
44
94
100
10
71
68
34
85
76
21
75
62
27
82
61
20
36
43
52
87
60
58
50
63
98
95
42
99
59
7
22
29
93
46
92
55
64
48
90
49
57
51
26
56
78
83
16
91
101
6
72
40
97
9
73
12
81
80
33
89
14
41
32
84
88
31
69
8
79
13
74
70
38
4
77
37
5
23
15
65
45
54
17
24
3
35
2
39
11
18
66

> <PUBCHEM_MMFF94_PARTIAL_CHARGES>
53
1 -0.34
10 -0.6
11 -0.62
12 -0.55
13 -0.62
14 0.37
16 -0.15
17 -0.05
18 0.27
19 0.41
2 -0.34
20 -0.3
21 0.12
22 0.36
23 -0.15
24 -0.15
25 0.37
26 0.1
27 -0.15
28 0.26
29 0.39
3 -0.34
30 -0.15
31 -0.15
32 0.27
33 0.27
34 0.72
35 -0.15
36 0.16
37 0.28
38 0.62
39 1.02
4 -0.36
40 -0.14
41 -0.3
46 0.15
47 0.15
48 0.15
5 -0.57
52 0.15
56 0.15
57 0.15
58 0.4
6 -0.84
65 0.15
66 0.37
67 0.15
7 0.05
70 0.15
71 0.15
72 0.15
8 -0.81
9 -0.62

> <PUBCHEM_EFFECTIVE_ROTOR_COUNT>
13

> <PUBCHEM_PHARMACOPHORE_FEATURES>
14
1 10 donor
1 11 acceptor
1 12 donor
1 4 acceptor
1 41 hydrophobe
1 5 acceptor
1 7 cation
1 8 cation
3 6 9 19 cation
4 10 11 13 34 cation
5 7 15 16 17 20 rings
6 11 13 22 34 35 36 rings
6 15 16 23 24 30 31 rings
6 9 19 21 26 27 29 rings

> <PUBCHEM_HEAVY_ATOM_COUNT>
41

> <PUBCHEM_ATOM_DEF_STEREO_COUNT>
0

> <PUBCHEM_ATOM_UDEF_STEREO_COUNT>
0

> <PUBCHEM_BOND_DEF_STEREO_COUNT>
0

> <PUBCHEM_BOND_UDEF_STEREO_COUNT>
0

> <PUBCHEM_ISOTOPIC_ATOM_COUNT>
0

> <PUBCHEM_COMPONENT_COUNT>
1

> <PUBCHEM_CACTVS_TAUTO_COUNT>
21

> <PUBCHEM_CONFORMER_ID>
0715AE4D00000001

> <PUBCHEM_MMFF94_ENERGY>
135.6996

> <PUBCHEM_FEATURE_SELFOVERLAP>
71.138

> <PUBCHEM_SHAPE_FINGERPRINT>
10439779 11 18197786509341241675
11513181 2 17916886710719714535
12107183 9 18336832995941821066
12422481 6 18189321532664582836
12608794 3 18336829672042633767
12988421 55 17839433903635464072
14117953 113 18263369080114950799
14725015 67 18041280942396532951
14739800 52 18059011816908086224
15347590 135 17761778768076216066
16112460 7 18410018706368849322
16993438 75 17608090867097057269
19319366 153 17112428160727043007
23559900 14 17916325903675482854
25223398 141 17750800934735493748
3117164 225 18413390917237172274
513202 73 17604719828591002959
5171179 24 18337094684256451918
56638632 10 18124590877754796195
6371009 1 18341615854969875371
9961470 85 18410854399683222779

> <PUBCHEM_SHAPE_MULTIPOLES>
770.35
14.07
7.14
2.53
0.22
3.83
0.01
-0.02
8.41
-6.77
0.32
-1.28
-4.37
1.31

> <PUBCHEM_SHAPE_SELFOVERLAP>
1654.333

> <PUBCHEM_SHAPE_VOLUME>
428.3

> <PUBCHEM_COORDINATE_TYPE>
2
5
10

$$$$
10458325
  -OEChem-11282412143D

 58 62  0     1  0  0  0  0  0999 V2000
    7.3402    3.2365   -0.7480 Cl  0  0  0  0  0  0  0  0  0  0  0  0
    9.1002    0.8590    0.5517 Cl  0  0  0  0  0  0  0  0  0  0  0  0
    4.5271    2.5331   -1.0113 F   0  0  0  0  0  0  0  0  0  0  0  0
   -2.7645   -1.3614    1.1291 O   0  0  0  0  0  0  0  0  0  0  0  0
   -1.3237    0.9435    1.7058 O   0  0  0  0  0  0  0  0  0  0  0  0
   -7.0728    1.8555   -1.2611 N   0  0  0  0  0  0  0  0  0  0  0  0
    1.0193   -3.2096   -1.0954 N   0  0  0  0  0  0  0  0  0  0  0  0
    3.0840   -1.9767   -1.2493 N   0  0  0  0  0  0  0  0  0  0  0  0
    3.2748    0.1689   -0.3027 N   0  0  0  0  0  0  0  0  0  0  0  0
   -7.2337   -0.0963    0.0252 C   0  0  2  0  0  0  0  0  0  0  0  0
   -6.4673    0.9774    0.8252 C   0  0  1  0  0  0  0  0  0  0  0  0
   -5.0546   -0.9578    0.5809 C   0  0  0  0  0  0  0  0  0  0  0  0
   -6.1733   -1.0976   -0.4462 C   0  0  0  0  0  0  0  0  0  0  0  0
   -4.9950    0.5526    0.7840 C   0  0  0  0  0  0  0  0  0  0  0  0
   -7.9201    0.6691   -1.1018 C   0  0  0  0  0  0  0  0  0  0  0  0
   -6.7630    2.2893    0.1051 C   0  0  0  0  0  0  0  0  0  0  0  0
   -3.7367   -1.5507    0.1141 C   0  0  0  0  0  0  0  0  0  0  0  0
   -7.7217    2.8993   -2.0403 C   0  0  0  0  0  0  0  0  0  0  0  0
   -1.4600   -1.2330    0.7239 C   0  0  0  0  0  0  0  0  0  0  0  0
   -0.7496   -0.0798    1.0155 C   0  0  0  0  0  0  0  0  0  0  0  0
   -0.8657   -2.2772    0.0180 C   0  0  0  0  0  0  0  0  0  0  0  0
    0.4557   -2.1958   -0.4150 C   0  0  0  0  0  0  0  0  0  0  0  0
    0.5724    0.0284    0.5949 C   0  0  0  0  0  0  0  0  0  0  0  0
    1.1720   -1.0250   -0.1171 C   0  0  0  0  0  0  0  0  0  0  0  0
    2.4890   -0.9807   -0.5661 C   0  0  0  0  0  0  0  0  0  0  0  0
   -1.2060    0.9140    3.1273 C   0  0  0  0  0  0  0  0  0  0  0  0
    2.3023   -3.0448   -1.4758 C   0  0  0  0  0  0  0  0  0  0  0  0
    4.6532    0.3496   -0.1078 C   0  0  0  0  0  0  0  0  0  0  0  0
    5.2674    1.5516   -0.4726 C   0  0  0  0  0  0  0  0  0  0  0  0
    5.4219   -0.6743    0.4540 C   0  0  0  0  0  0  0  0  0  0  0  0
    6.6374    1.7280   -0.2772 C   0  0  0  0  0  0  0  0  0  0  0  0
    6.7916   -0.4981    0.6492 C   0  0  0  0  0  0  0  0  0  0  0  0
    7.3993    0.7031    0.2838 C   0  0  0  0  0  0  0  0  0  0  0  0
   -7.9711   -0.6006    0.6609 H   0  0  0  0  0  0  0  0  0  0  0  0
   -6.8196    1.0129    1.8628 H   0  0  0  0  0  0  0  0  0  0  0  0
   -5.3529   -1.4274    1.5282 H   0  0  0  0  0  0  0  0  0  0  0  0
   -6.5715   -2.1170   -0.4798 H   0  0  0  0  0  0  0  0  0  0  0  0
   -5.8122   -0.8516   -1.4527 H   0  0  0  0  0  0  0  0  0  0  0  0
   -4.4628    1.0375   -0.0441 H   0  0  0  0  0  0  0  0  0  0  0  0
   -4.4775    0.8238    1.7102 H   0  0  0  0  0  0  0  0  0  0  0  0
   -7.9907    0.0850   -2.0250 H   0  0  0  0  0  0  0  0  0  0  0  0
   -8.9352    0.9472   -0.7892 H   0  0  0  0  0  0  0  0  0  0  0  0
   -7.6299    2.7748    0.5721 H   0  0  0  0  0  0  0  0  0  0  0  0
   -5.9187    2.9856    0.1360 H   0  0  0  0  0  0  0  0  0  0  0  0
   -3.4214   -1.0798   -0.8266 H   0  0  0  0  0  0  0  0  0  0  0  0
   -3.8567   -2.6255   -0.0649 H   0  0  0  0  0  0  0  0  0  0  0  0
   -8.6626    3.2357   -1.5900 H   0  0  0  0  0  0  0  0  0  0  0  0
   -7.9351    2.5414   -3.0534 H   0  0  0  0  0  0  0  0  0  0  0  0
   -7.0602    3.7666   -2.1407 H   0  0  0  0  0  0  0  0  0  0  0  0
   -1.4360   -3.1797   -0.1943 H   0  0  0  0  0  0  0  0  0  0  0  0
    1.1154    0.9377    0.8393 H   0  0  0  0  0  0  0  0  0  0  0  0
   -1.6787    0.0145    3.5340 H   0  0  0  0  0  0  0  0  0  0  0  0
   -1.7185    1.7913    3.5313 H   0  0  0  0  0  0  0  0  0  0  0  0
   -0.1537    0.9542    3.4257 H   0  0  0  0  0  0  0  0  0  0  0  0
    2.7506   -3.8650   -2.0232 H   0  0  0  0  0  0  0  0  0  0  0  0
    2.7821    1.0374   -0.4928 H   0  0  0  0  0  0  0  0  0  0  0  0
    4.9707   -1.6144    0.7604 H   0  0  0  0  0  0  0  0  0  0  0  0
    7.3698   -1.3062    1.0904 H   0  0  0  0  0  0  0  0  0  0  0  0
  1 31  1  0  0  0  0
  2 33  1  0  0  0  0
  3 29  1  0  0  0  0
  4 17  1  0  0  0  0
  4 19  1  0  0  0  0
  5 20  1  0  0  0  0
  5 26  1  0  0  0  0
  6 15  1  0  0  0  0
  6 16  1  0  0  0  0
  6 18  1  0  0  0  0
  7 22  1  0  0  0  0
  7 27  2  0  0  0  0
  8 25  2  0  0  0  0
  8 27  1  0  0  0  0
  9 25  1  0  0  0  0
  9 28  1  0  0  0  0
  9 56  1  0  0  0  0
 10 11  1  0  0  0  0
 10 13  1  0  0  0  0
 10 15  1  0  0  0  0
 10 34  1  0  0  0  0
 11 14  1  0  0  0  0
 11 16  1  0  0  0  0
 11 35  1  0  0  0  0
 12 13  1  0  0  0  0
 12 14  1  0  0  0  0
 12 17  1  0  0  0  0
 12 36  1  0  0  0  0
 13 37  1  0  0  0  0
 13 38  1  0  0  0  0
 14 39  1  0  0  0  0
 14 40  1  0  0  0  0
 15 41  1  0  0  0  0
 15 42  1  0  0  0  0
 16 43  1  0  0  0  0
 16 44  1  0  0  0  0
 17 45  1  0  0  0  0
 17 46  1  0  0  0  0
 18 47  1  0  0  0  0
 18 48  1  0  0  0  0
 18 49  1  0  0  0  0
 19 20  2  0  0  0  0
 19 21  1  0  0  0  0
 20 23  1  0  0  0  0
 21 22  2  0  0  0  0
 21 50  1  0  0  0  0
 22 24  1  0  0  0  0
 23 24  2  0  0  0  0
 23 51  1  0  0  0  0
 24 25  1  0  0  0  0
 26 52  1  0  0  0  0
 26 53  1  0  0  0  0
 26 54  1  0  0  0  0
 27 55  1  0  0  0  0
 28 29  2  0  0  0  0
 28 30  1  0  0  0  0
 29 31  1  0  0  0  0
 30 32  2  0  0  0  0
 30 57  1  0  0  0  0
 31 33  2  0  0  0  0
 32 33  1  0  0  0  0
 32 58  1  0  0  0  0
M  END
> <PUBCHEM_COMPOUND_CID>
10458325

> <PUBCHEM_CONFORMER_RMSD>
1.2

> <PUBCHEM_CONFORMER_DIVERSEORDER>
1
153
111
137
22
162
6
40
163
168
30
91
158
164
113
146
26
103
33
46
139
167
125
4
94
106
102
85
48
67
132
77
97
45
133
31
169
134
42
15
96
87
147
100
61
141
148
135
160
10
159
69
170
95
124
73
161
56
145
126
35
82
24
68
151
90
101
136
3
88
78
47
25
36
117
93
116
129
7
115
166
44
150
130
54
105
12
155
112
16
123
143
140
65
58
70
120
92
128
110
52
5
119
76
121
59
71
13
34
2
109
114
156
62
122
57
8
83
142
51
20
49
165
19
138
104
74
89
50
86
118
28
64
157
144
154
11
99
21
72
14
53
80
60
17
27
84
131
23
107
32
43
37
29
171
18
63
55
41
66
38
75
149
39
127
98
9
81
79
152
108

> <PUBCHEM_MMFF94_PARTIAL_CHARGES>
33
1 -0.18
15 0.27
16 0.27
17 0.28
18 0.27
19 0.08
2 -0.18
20 0.08
21 -0.15
22 0.31
23 -0.15
25 0.41
26 0.28
27 0.47
28 0.1
29 0.19
3 -0.19
30 -0.15
31 0.18
32 -0.15
33 0.18
4 -0.36
5 -0.36
50 0.15
51 0.15
55 0.15
56 0.4
57 0.15
58 0.15
6 -0.81
7 -0.62
8 -0.62
9 -0.6

> <PUBCHEM_EFFECTIVE_ROTOR_COUNT>
7.2

> <PUBCHEM_PHARMACOPHORE_FEATURES>
11
1 4 acceptor
1 5 acceptor
1 6 cation
1 9 donor
3 7 8 27 cation
3 8 9 25 cation
5 10 11 12 13 14 rings
5 6 10 11 15 16 rings
6 19 20 21 22 23 24 rings
6 28 29 30 31 32 33 rings
6 7 8 22 24 25 27 rings

> <PUBCHEM_HEAVY_ATOM_COUNT>
33

> <PUBCHEM_ATOM_DEF_STEREO_COUNT>
2

> <PUBCHEM_ATOM_UDEF_STEREO_COUNT>
0

> <PUBCHEM_BOND_DEF_STEREO_COUNT>
0

> <PUBCHEM_BOND_UDEF_STEREO_COUNT>
0

> <PUBCHEM_ISOTOPIC_ATOM_COUNT>
0

> <PUBCHEM_COMPONENT_COUNT>
1

> <PUBCHEM_CACTVS_TAUTO_COUNT>
3

> <PUBCHEM_CONFORMER_ID>
009F94D500000001

> <PUBCHEM_MMFF94_ENERGY>
125.9125

> <PUBCHEM_FEATURE_SELFOVERLAP>
56.403

> <PUBCHEM_SHAPE_FINGERPRINT>
10280341 67 17771622641116731176
10692045 39 14923946755798523963
10835480 77 18411702058886927431
11135926 11 17989216940744248547
11181472 205 17676492722912502988
11475781 23 18336552624945006055
11497681 19 12391519680520508184
11621639 307 17548416368665975868
11719270 70 18202282490050004662
12522641 126 16271659871361180526
12838862 33 17988632009453661546
13150687 139 17489598852983117902
13248334 5 18125446306513934942
13540713 5 17129319562368631715
1361 4 11311790461567160580
13673619 4 9583519806443504723
13690498 29 17631161069875904831
13911987 19 17775288257678518935
13914758 101 18113618984518232328
14117953 113 18341901801218531612
14347424 109 18113612388155444978
14767858 380 17704073980057405433
14931854 50 17703804625779155768
15021287 119 12252189606041179475
15131766 46 17609505183339234516
15183329 4 18341615931762419801
15289351 153 18130507436509474458
16989713 51 17487613259643440423
16992727 255 18131064961412727599
16994733 274 18113897173892895425
19304144 158 18408887335137648775
20105231 36 11530478922586265320
20554085 129 17703782635879462146
20715895 44 18410579487242161614
21150785 3 15267341825249637763
21403212 168 18410571795768377594
21424621 283 17749108877167590379
21781055 127 15936980613371928030
21792965 106 18040725731463308636
21814621 53 17531257106312198571
2838139 119 18186802521718838701
3103668 31 17129286830618438175
3383291 50 11314308364674820240
3633792 109 18412267212274817618
4073 2 18409173225278118179
4169191 19 18342181051053841177
4353968 344 17417542302743015724
437795 83 18273215262444838769
50677037 204 18264779753497171693
5104073 3 13479718489119119537
6058803 2 16841373916852694051
636775 8 9079125479490203760
6371009 1 18202010953754081648
6376802 90 18261401057212232651
99344 41 18410292514886608098
999808 66 9655576310187006161

> <PUBCHEM_SHAPE_MULTIPOLES>
643.93
27.12
3.22
1.58
0.21
0.19
-0.63
22.95
5.56
-0.73
1.81
1.62
0.49
1.36

> <PUBCHEM_SHAPE_SELFOVERLAP>
1390.304

> <PUBCHEM_SHAPE_VOLUME>
358.2

> <PUBCHEM_COORDINATE_TYPE>
2
5
10

$$$$
78323835
  -OEChem-11282412143D

 43 45  0     0  0  0  0  0  0999 V2000
    4.1903    0.5140    0.3640 S   0  0  0  0  0  0  0  0  0  0  0  0
    4.9026    0.6764    1.6159 O   0  0  0  0  0  0  0  0  0  0  0  0
    4.8423    0.7640   -0.9066 O   0  0  0  0  0  0  0  0  0  0  0  0
   -1.6539    1.7926   -0.3804 N   0  0  0  0  0  0  0  0  0  0  0  0
    2.7285    1.4082    0.4195 N   0  0  0  0  0  0  0  0  0  0  0  0
   -3.2637    1.0708    1.2603 N   0  0  0  0  0  0  0  0  0  0  0  0
   -3.2915   -2.5989   -0.4298 N   0  0  0  0  0  0  0  0  0  0  0  0
   -4.1716   -1.1875    1.3159 N   0  0  0  0  0  0  0  0  0  0  0  0
   -0.4249    1.5480   -1.0459 C   0  0  0  0  0  0  0  0  0  0  0  0
    1.6604    1.3705   -0.6275 C   0  0  0  0  0  0  0  0  0  0  0  0
    0.4317    0.4706   -0.3466 C   0  0  0  0  0  0  0  0  0  0  0  0
    0.6744    2.5640   -0.6685 C   0  0  0  0  0  0  0  0  0  0  0  0
   -2.4978    0.7821    0.1828 C   0  0  0  0  0  0  0  0  0  0  0  0
   -2.1182    3.1858   -0.2560 C   0  0  0  0  0  0  0  0  0  0  0  0
    3.5372   -1.1378    0.3170 C   0  0  0  0  0  0  0  0  0  0  0  0
   -2.5399   -0.4984   -0.3669 C   0  0  0  0  0  0  0  0  0  0  0  0
    4.6498   -2.1715    0.2625 C   0  0  0  0  0  0  0  0  0  0  0  0
   -3.3882   -1.4120    0.2468 C   0  0  0  0  0  0  0  0  0  0  0  0
   -1.9187   -1.1732   -1.4489 C   0  0  0  0  0  0  0  0  0  0  0  0
    4.0936   -3.5844    0.2022 C   0  0  0  0  0  0  0  0  0  0  0  0
   -4.0425    0.0816    1.7534 C   0  0  0  0  0  0  0  0  0  0  0  0
   -2.4000   -2.4650   -1.4633 C   0  0  0  0  0  0  0  0  0  0  0  0
   -0.5408    1.4227   -2.1285 H   0  0  0  0  0  0  0  0  0  0  0  0
    2.1004    1.1798   -1.6161 H   0  0  0  0  0  0  0  0  0  0  0  0
    0.5204   -0.5079   -0.8216 H   0  0  0  0  0  0  0  0  0  0  0  0
    0.2440    0.3258    0.7250 H   0  0  0  0  0  0  0  0  0  0  0  0
    0.5588    3.0604    0.3031 H   0  0  0  0  0  0  0  0  0  0  0  0
    0.8959    3.3216   -1.4258 H   0  0  0  0  0  0  0  0  0  0  0  0
    2.3782    1.6214    1.3631 H   0  0  0  0  0  0  0  0  0  0  0  0
   -1.6305    3.8391   -0.9874 H   0  0  0  0  0  0  0  0  0  0  0  0
   -1.9091    3.5667    0.7489 H   0  0  0  0  0  0  0  0  0  0  0  0
   -3.1960    3.2542   -0.4431 H   0  0  0  0  0  0  0  0  0  0  0  0
    2.9077   -1.2216   -0.5737 H   0  0  0  0  0  0  0  0  0  0  0  0
    2.9224   -1.2760    1.2121 H   0  0  0  0  0  0  0  0  0  0  0  0
    5.2844   -1.9977   -0.6143 H   0  0  0  0  0  0  0  0  0  0  0  0
    5.2963   -2.0759    1.1426 H   0  0  0  0  0  0  0  0  0  0  0  0
   -1.2316   -0.7858   -2.1860 H   0  0  0  0  0  0  0  0  0  0  0  0
    3.4731   -3.7241   -0.6887 H   0  0  0  0  0  0  0  0  0  0  0  0
    4.9102   -4.3122    0.1649 H   0  0  0  0  0  0  0  0  0  0  0  0
    3.4833   -3.8035    1.0842 H   0  0  0  0  0  0  0  0  0  0  0  0
   -4.6437    0.3453    2.6168 H   0  0  0  0  0  0  0  0  0  0  0  0
   -3.8009   -3.4419   -0.2039 H   0  0  0  0  0  0  0  0  0  0  0  0
   -2.1969   -3.2960   -2.1239 H   0  0  0  0  0  0  0  0  0  0  0  0
  1  2  2  0  0  0  0
  1  3  2  0  0  0  0
  1  5  1  0  0  0  0
  1 15  1  0  0  0  0
  4  9  1  0  0  0  0
  4 13  1  0  0  0  0
  4 14  1  0  0  0  0
  5 10  1  0  0  0  0
  5 29  1  0  0  0  0
  6 13  2  0  0  0  0
  6 21  1  0  0  0  0
  7 18  1  0  0  0  0
  7 22  1  0  0  0  0
  7 42  1  0  0  0  0
  8 18  1  0  0  0  0
  8 21  2  0  0  0  0
  9 11  1  0  0  0  0
  9 12  1  0  0  0  0
  9 23  1  0  0  0  0
 10 11  1  0  0  0  0
 10 12  1  0  0  0  0
 10 24  1  0  0  0  0
 11 25  1  0  0  0  0
 11 26  1  0  0  0  0
 12 27  1  0  0  0  0
 12 28  1  0  0  0  0
 13 16  1  0  0  0  0
 14 30  1  0  0  0  0
 14 31  1  0  0  0  0
 14 32  1  0  0  0  0
 15 17  1  0  0  0  0
 15 33  1  0  0  0  0
 15 34  1  0  0  0  0
 16 18  2  0  0  0  0
 16 19  1  0  0  0  0
 17 20  1  0  0  0  0
 17 35  1  0  0  0  0
 17 36  1  0  0  0  0
 19 22  2  0  0  0  0
 19 37  1  0  0  0  0
 20 38  1  0  0  0  0
 20 39  1  0  0  0  0
 20 40  1  0  0  0  0
 21 41  1  0  0  0  0
 22 43  1  0  0  0  0
M  END
> <PUBCHEM_COMPOUND_CID>
78323835

> <PUBCHEM_CONFORMER_RMSD>
1

> <PUBCHEM_CONFORMER_DIVERSEORDER>
1
106
133
43
161
13
145
130
156
124
40
75
73
27
165
18
25
32
91
159
125
110
17
168
28
119
33
29
55
62
56
171
93
163
7
48
113
67
142
90
78
96
109
102
82
12
144
37
85
6
136
89
21
72
79
108
162
65
117
157
26
31
57
50
167
94
36
74
34
140
9
92
121
128
147
170
138
24
164
134
63
143
95
103
100
59
115
5
76
118
149
154
68
158
135
45
99
116
22
104
60
71
129
131
15
139
8
122
166
39
44
88
97
112
127
152
107
23
87
84
61
148
105
77
132
19
10
54
123
30
4
126
58
49
98
11
35
3
169
141
86
66
42
114
53
47
51
20
101
151
80
146
2
70
14
150
52
153
46
81
69
160
41
120
137
16
83
155
64
38
111

> <PUBCHEM_MMFF94_PARTIAL_CHARGES>
22
1 1.33
10 0.31
13 0.41
14 0.37
15 0.11
18 0.11
19 -0.15
2 -0.65
21 0.47
22 -0.3
29 0.42
3 -0.65
37 0.15
4 -0.71
41 0.15
42 0.27
43 0.15
5 -0.87
6 -0.62
7 0.03
8 -0.57
9 0.25

> <PUBCHEM_EFFECTIVE_ROTOR_COUNT>
6.8

> <PUBCHEM_PHARMACOPHORE_FEATURES>
11
1 2 acceptor
1 20 hydrophobe
1 3 acceptor
1 5 donor
1 7 cation
1 7 donor
3 4 6 13 cation
3 6 8 21 cation
4 9 10 11 12 rings
5 7 16 18 19 22 rings
6 6 8 13 16 18 21 rings

> <PUBCHEM_HEAVY_ATOM_COUNT>
22

> <PUBCHEM_ATOM_DEF_STEREO_COUNT>
0

> <PUBCHEM_ATOM_UDEF_STEREO_COUNT>
0

> <PUBCHEM_BOND_DEF_STEREO_COUNT>
0

> <PUBCHEM_BOND_UDEF_STEREO_COUNT>
0

> <PUBCHEM_ISOTOPIC_ATOM_COUNT>
0

> <PUBCHEM_COMPONENT_COUNT>
1

> <PUBCHEM_CACTVS_TAUTO_COUNT>
3

> <PUBCHEM_CONFORMER_ID>
04AB207B00000001

> <PUBCHEM_MMFF94_ENERGY>
43.2755

> <PUBCHEM_FEATURE_SELFOVERLAP>
56.064

> <PUBCHEM_SHAPE_FINGERPRINT>
10928967 22 18335984164865840690
11370993 144 17274833440956395452
11552529 35 17845925333684120702
11578080 2 18052518148960090389
12422481 6 18194702392489384217
12553582 1 18335420226858087476
12596602 18 17417815101564184914
12633257 1 17632298951691073338
13551218 46 18410581656406485011
13583140 156 17917128573197176960
14100547 121 18131064935416531559
14420673 8 17978235959056400234
14848178 96 10591755489930905714
15537594 2 18337684078497802230
16110190 28 18342459188994346134
17780758 139 18131067117570667056
1813 80 17676493864609010244
19377110 9 18262795293948822968
20281475 54 18409446986324026060
20693207 138 15575284323173873425
20775530 9 16810683618069465115
21315759 227 17531246218301168562
21673915 165 18412257372378024930
21860390 5 8358263670382657354
235170 7 15357694193468131666
312425 83 12396574079939429154
3737641 26 18410862032224943606
5104073 3 18338228251181292632
56633871 153 18412269419730031475
7097593 13 18342741861575452772
7970288 3 18188771780892805938
90316 7 18341338885329799845

> <PUBCHEM_SHAPE_MULTIPOLES>
419.96
10.44
3.65
1.35
10.24
1.1
-0.21
5.19
-3.79
0.6
0.78
-0.92
0.16
-0.62

> <PUBCHEM_SHAPE_SELFOVERLAP>
871.438

> <PUBCHEM_SHAPE_VOLUME>
242.5

> <PUBCHEM_COORDINATE_TYPE>
2
5
10

$$$$
134821691
  -OEChem-11282412143D

 53 56  0     0  0  0  0  0  0999 V2000
    2.2361   -2.9711   -0.4720 O   0  0  0  0  0  0  0  0  0  0  0  0
   -2.3999    1.3054   -0.9152 O   0  0  0  0  0  0  0  0  0  0  0  0
    0.7619    3.7643    0.2704 O   0  0  0  0  0  0  0  0  0  0  0  0
    4.0951   -1.5270   -0.4963 N   0  0  0  0  0  0  0  0  0  0  0  0
    4.3438    0.8203   -0.3070 N   0  0  0  0  0  0  0  0  0  0  0  0
    0.2120    1.2413    0.0709 N   0  0  0  0  0  0  0  0  0  0  0  0
    3.7996    2.0571   -0.1517 N   0  0  0  0  0  0  0  0  0  0  0  0
    2.9375    4.5561    0.1421 N   0  0  0  0  0  0  0  0  0  0  0  0
   -6.4589   -1.0965   -0.4016 N   0  0  0  0  0  0  0  0  0  0  0  0
   -5.2712   -1.4263    0.1284 N   0  0  0  0  0  0  0  0  0  0  0  0
   -5.0233    0.6844   -0.3805 N   0  0  0  0  0  0  0  0  0  0  0  0
    4.3580   -3.9234   -0.7326 C   0  0  0  0  0  0  0  0  0  0  0  0
    4.2921   -5.0359    0.2571 C   0  0  0  0  0  0  0  0  0  0  0  0
    5.4690   -4.1070    0.2437 C   0  0  0  0  0  0  0  0  0  0  0  0
    3.4378   -2.7565   -0.5519 C   0  0  0  0  0  0  0  0  0  0  0  0
    3.5311   -0.2572   -0.3362 C   0  0  0  0  0  0  0  0  0  0  0  0
    2.1590   -0.1656   -0.2151 C   0  0  0  0  0  0  0  0  0  0  0  0
    1.6054    1.0928   -0.0570 C   0  0  0  0  0  0  0  0  0  0  0  0
    2.4605    2.1762   -0.0306 C   0  0  0  0  0  0  0  0  0  0  0  0
   -0.7933    0.4044    0.6028 C   0  0  0  0  0  0  0  0  0  0  0  0
   -2.0943    0.4462    0.1017 C   0  0  0  0  0  0  0  0  0  0  0  0
   -3.0757   -0.3870    0.6387 C   0  0  0  0  0  0  0  0  0  0  0  0
   -0.4737   -0.4705    1.6411 C   0  0  0  0  0  0  0  0  0  0  0  0
    1.9767    3.5387    0.1303 C   0  0  0  0  0  0  0  0  0  0  0  0
   -2.7562   -1.2619    1.6770 C   0  0  0  0  0  0  0  0  0  0  0  0
   -1.4551   -1.3037    2.1783 C   0  0  0  0  0  0  0  0  0  0  0  0
   -4.4237   -0.3626    0.1371 C   0  0  0  0  0  0  0  0  0  0  0  0
   -6.2574    0.1903   -0.6930 C   0  0  0  0  0  0  0  0  0  0  0  0
   -2.2460    0.8128   -2.2431 C   0  0  0  0  0  0  0  0  0  0  0  0
   -7.5645   -1.9930   -0.5523 C   0  0  0  0  0  0  0  0  0  0  0  0
    2.6177    5.9548    0.3164 C   0  0  0  0  0  0  0  0  0  0  0  0
    4.5443   -4.2002   -1.7648 H   0  0  0  0  0  0  0  0  0  0  0  0
    4.4432   -6.0455   -0.1052 H   0  0  0  0  0  0  0  0  0  0  0  0
    3.6033   -4.9601    1.0896 H   0  0  0  0  0  0  0  0  0  0  0  0
    5.5690   -3.4212    1.0762 H   0  0  0  0  0  0  0  0  0  0  0  0
    6.4106   -4.4916   -0.1294 H   0  0  0  0  0  0  0  0  0  0  0  0
    5.1081   -1.5275   -0.5861 H   0  0  0  0  0  0  0  0  0  0  0  0
    1.4842   -1.0032   -0.2692 H   0  0  0  0  0  0  0  0  0  0  0  0
   -0.1537    2.0926   -0.3455 H   0  0  0  0  0  0  0  0  0  0  0  0
    0.5241   -0.5088    2.0693 H   0  0  0  0  0  0  0  0  0  0  0  0
   -3.5023   -1.9175    2.1197 H   0  0  0  0  0  0  0  0  0  0  0  0
   -1.2077   -1.9800    2.9913 H   0  0  0  0  0  0  0  0  0  0  0  0
    3.9134    4.3098    0.0034 H   0  0  0  0  0  0  0  0  0  0  0  0
   -7.0217    0.8069   -1.1488 H   0  0  0  0  0  0  0  0  0  0  0  0
   -2.5879    1.5865   -2.9361 H   0  0  0  0  0  0  0  0  0  0  0  0
   -2.8479   -0.0874   -2.4027 H   0  0  0  0  0  0  0  0  0  0  0  0
   -1.1937    0.5981   -2.4538 H   0  0  0  0  0  0  0  0  0  0  0  0
   -7.2551   -2.8225   -1.1924 H   0  0  0  0  0  0  0  0  0  0  0  0
   -8.3999   -1.4586   -1.0105 H   0  0  0  0  0  0  0  0  0  0  0  0
   -7.8521   -2.3601    0.4356 H   0  0  0  0  0  0  0  0  0  0  0  0
    2.5209    6.4095   -0.6725 H   1  0  0  0  0  0  0  0  0  0  0  0
    3.4360    6.4312    0.8611 H   1  0  0  0  0  0  0  0  0  0  0  0
    1.6820    6.0719    0.8685 H   1  0  0  0  0  0  0  0  0  0  0  0
  1 15  2  0  0  0  0
  2 21  1  0  0  0  0
  2 29  1  0  0  0  0
  3 24  2  0  0  0  0
  4 15  1  0  0  0  0
  4 16  1  0  0  0  0
  4 37  1  0  0  0  0
  5  7  1  0  0  0  0
  5 16  2  0  0  0  0
  6 18  1  0  0  0  0
  6 20  1  0  0  0  0
  6 39  1  0  0  0  0
  7 19  2  0  0  0  0
  8 24  1  0  0  0  0
  8 31  1  0  0  0  0
  8 43  1  0  0  0  0
  9 10  1  0  0  0  0
  9 28  1  0  0  0  0
  9 30  1  0  0  0  0
 10 27  2  0  0  0  0
 11 27  1  0  0  0  0
 11 28  2  0  0  0  0
 12 13  1  0  0  0  0
 12 14  1  0  0  0  0
 12 15  1  0  0  0  0
 12 32  1  0  0  0  0
 13 14  1  0  0  0  0
 13 33  1  0  0  0  0
 13 34  1  0  0  0  0
 14 35  1  0  0  0  0
 14 36  1  0  0  0  0
 16 17  1  0  0  0  0
 17 18  2  0  0  0  0
 17 38  1  0  0  0  0
 18 19  1  0  0  0  0
 19 24  1  0  0  0  0
 20 21  1  0  0  0  0
 20 23  2  0  0  0  0
 21 22  2  0  0  0  0
 22 25  1  0  0  0  0
 22 27  1  0  0  0  0
 23 26  1  0  0  0  0
 23 40  1  0  0  0  0
 25 26  2  0  0  0  0
 25 41  1  0  0  0  0
 26 42  1  0  0  0  0
 28 44  1  0  0  0  0
 29 45  1  0  0  0  0
 29 46  1  0  0  0  0
 29 47  1  0  0  0  0
 30 48  1  0  0  0  0
 30 49  1  0  0  0  0
 30 50  1  0  0  0  0
 31 51  1  0  0  0  0
 31 52  1  0  0  0  0
 31 53  1  0  0  0  0
M  ISO  3  51   2  52   2  53   2
M  END
> <PUBCHEM_COMPOUND_CID>
134821691

> <PUBCHEM_CONFORMER_RMSD>
1

> <PUBCHEM_CONFORMER_DIVERSEORDER>
1
33
21
18
45
26
46
11
27
32
39
47
40
22
44
43
30
23
36
20
34
3
16
14
2
35
15
31
19
28
24
13
25
29
38
17
10
12
9
37
42
6
41
4
7
5
8
48

> <PUBCHEM_MMFF94_PARTIAL_CHARGES>
44
1 -0.57
10 -0.71
11 -0.57
12 -0.1
13 -0.2
14 -0.2
15 0.63
16 0.43
17 -0.15
18 0.1
19 0.4
2 -0.36
20 0.1
21 0.08
22 0.05
23 -0.15
24 0.54
25 -0.15
26 -0.15
27 0.46
28 0.04
29 0.28
3 -0.57
30 0.26
31 0.3
32 0.1
33 0.1
34 0.1
35 0.1
36 0.1
37 0.37
38 0.15
39 0.4
4 -0.55
40 0.15
41 0.15
42 0.15
43 0.37
44 0.15
5 -0.31
6 -0.6
7 -0.31
8 -0.73
9 0.31

> <PUBCHEM_EFFECTIVE_ROTOR_COUNT>
9.6

> <PUBCHEM_PHARMACOPHORE_FEATURES>
13
1 1 acceptor
1 2 acceptor
1 3 acceptor
1 4 donor
1 6 cation
1 6 donor
1 7 acceptor
1 8 donor
3 10 11 27 cation
3 9 11 28 cation
5 9 10 11 27 28 rings
6 20 21 22 23 25 26 rings
6 5 7 16 17 18 19 rings

> <PUBCHEM_HEAVY_ATOM_COUNT>
31

> <PUBCHEM_ATOM_DEF_STEREO_COUNT>
0

> <PUBCHEM_ATOM_UDEF_STEREO_COUNT>
0

> <PUBCHEM_BOND_DEF_STEREO_COUNT>
0

> <PUBCHEM_BOND_UDEF_STEREO_COUNT>
0

> <PUBCHEM_ISOTOPIC_ATOM_COUNT>
3

> <PUBCHEM_COMPONENT_COUNT>
1

> <PUBCHEM_CACTVS_TAUTO_COUNT>
998

> <PUBCHEM_CONFORMER_ID>
0809373B00000001

> <PUBCHEM_MMFF94_ENERGY>
119.8611

> <PUBCHEM_FEATURE_SELFOVERLAP>
68.721

> <PUBCHEM_SHAPE_FINGERPRINT>
10411042 1 18267304227629896518
10693767 8 18411688903666532503
11135609 149 18267841939843387868
11719270 70 18338515352681133480
11720765 8 18339917130468439256
12107183 9 18055365643430631449
12202916 173 18260822714269732562
12440610 7 17751925967439100571
12788726 201 17542224558636610520
13533116 47 18411985780094402739
1361 2 18195242450161615845
13773456 30 18050565437224054728
13782708 43 17968096374441400195
13911987 19 18119556416808908764
13955234 65 18269838769003056952
14866123 147 17617383879066058216
15324884 4 17539999559482532408
19311894 1 18050847711081110497
19315092 285 17703504398938684962
19319366 153 17985544691665595860
20775438 99 18192978534267261851
21133410 32 16302093296846462538
21133410 58 18338789040629968599
21792938 169 18196633280804972550
23536364 44 17899972725242491519
23559900 14 18409449210589486897
23569914 152 17760896599980574935
23569943 247 18190182279040704923
23845131 108 17692528236230353632
4015057 19 18336273366282449923
404807 14 18194690263544320987
4403749 210 17689715690018970512
46194498 28 17821732745110147326
463206 1 18335710394527748227
495365 180 18197775720335850008
513532 50 18335690638194573906
5309563 4 18268150847209403462
59682541 52 18410285931055243103
6004065 56 18410291424170935922
6695519 79 17620777392724003177
6697151 62 18195500654968470477
7970288 3 18195807366852311006

> <PUBCHEM_SHAPE_MULTIPOLES>
580.51
14.26
6.63
1.27
20.9
4.87
-0.21
-14.23
3.55
-15.35
-0.31
1.08
-0.36
0.9

> <PUBCHEM_SHAPE_SELFOVERLAP>
1253.653

> <PUBCHEM_SHAPE_VOLUME>
320.1

> <PUBCHEM_COORDINATE_TYPE>
2
5
10

$$$$
135565884
  -OEChem-11282412143D

 64 68  0     1  0  0  0  0  0999 V2000
    7.5334    2.6626    0.1871 O   0  0  0  0  0  0  0  0  0  0  0  0
   -0.8290   -4.1202   -1.9082 O   0  0  0  0  0  0  0  0  0  0  0  0
   -5.2792    1.2578    1.5254 O   0  0  0  0  0  0  0  0  0  0  0  0
    1.6351   -1.6988    0.5107 N   0  0  0  0  0  0  0  0  0  0  0  0
    5.2945    2.0432    0.3158 N   0  0  0  0  0  0  0  0  0  0  0  0
    1.9264   -3.5883   -0.8820 N   0  0  0  0  0  0  0  0  0  0  0  0
    0.6996   -0.8767    1.0218 N   0  0  0  0  0  0  0  0  0  0  0  0
   -2.5119   -2.7479   -1.1714 N   0  0  0  0  0  0  0  0  0  0  0  0
    3.5184   -0.1488    1.0274 C   0  0  0  0  0  0  0  0  0  0  0  0
    3.0413   -1.5923    0.8868 C   0  0  2  0  0  0  0  0  0  0  0  0
    4.9758   -0.0990    1.5054 C   0  0  0  0  0  0  0  0  0  0  0  0
    3.3771    0.6059   -0.3013 C   0  0  0  0  0  0  0  0  0  0  0  0
    3.9054   -2.3398   -0.1465 C   0  0  0  0  0  0  0  0  0  0  0  0
    5.4745    1.3405    1.5887 C   0  0  0  0  0  0  0  0  0  0  0  0
    3.9177    2.0328   -0.2006 C   0  0  0  0  0  0  0  0  0  0  0  0
    3.3119   -3.7149   -0.4594 C   0  0  0  0  0  0  0  0  0  0  0  0
    1.1246   -2.6576   -0.3245 C   0  0  0  0  0  0  0  0  0  0  0  0
   -0.2228   -2.4063   -0.4106 C   0  0  0  0  0  0  0  0  0  0  0  0
   -0.4271   -1.3025    0.4423 C   0  0  0  0  0  0  0  0  0  0  0  0
    6.3897    2.6724   -0.2715 C   0  0  0  0  0  0  0  0  0  0  0  0
   -1.6771   -0.6422    0.7230 C   0  0  0  0  0  0  0  0  0  0  0  0
   -1.1662   -3.1383   -1.2040 C   0  0  0  0  0  0  0  0  0  0  0  0
    6.1663    3.4094   -1.5315 C   0  0  0  0  0  0  0  0  0  0  0  0
   -2.4711   -1.0733    1.7858 C   0  0  0  0  0  0  0  0  0  0  0  0
   -2.0937    0.4271   -0.0698 C   0  0  0  0  0  0  0  0  0  0  0  0
    7.1647    3.4962   -2.4128 C   0  0  0  0  0  0  0  0  0  0  0  0
   -3.6818   -0.4352    2.0556 C   0  0  0  0  0  0  0  0  0  0  0  0
   -3.3044    1.0652    0.1998 C   0  0  0  0  0  0  0  0  0  0  0  0
   -4.0983    0.6341    1.2625 C   0  0  0  0  0  0  0  0  0  0  0  0
   -6.1112    1.5391    0.4546 C   0  0  0  0  0  0  0  0  0  0  0  0
   -6.3424    0.5706   -0.5222 C   0  0  0  0  0  0  0  0  0  0  0  0
   -6.7177    2.7910    0.3528 C   0  0  0  0  0  0  0  0  0  0  0  0
   -7.1801    0.8540   -1.6009 C   0  0  0  0  0  0  0  0  0  0  0  0
   -7.5555    3.0744   -0.7258 C   0  0  0  0  0  0  0  0  0  0  0  0
   -7.7866    2.1058   -1.7027 C   0  0  0  0  0  0  0  0  0  0  0  0
    2.9040    0.3647    1.7799 H   0  0  0  0  0  0  0  0  0  0  0  0
    3.1136   -2.1033    1.8563 H   0  0  0  0  0  0  0  0  0  0  0  0
    5.0701   -0.5787    2.4864 H   0  0  0  0  0  0  0  0  0  0  0  0
    5.6419   -0.6283    0.8162 H   0  0  0  0  0  0  0  0  0  0  0  0
    2.3321    0.6528   -0.6253 H   0  0  0  0  0  0  0  0  0  0  0  0
    3.9422    0.1297   -1.1067 H   0  0  0  0  0  0  0  0  0  0  0  0
    4.9233   -2.4954    0.2242 H   0  0  0  0  0  0  0  0  0  0  0  0
    3.9791   -1.8161   -1.1025 H   0  0  0  0  0  0  0  0  0  0  0  0
    4.9121    1.8963    2.3486 H   0  0  0  0  0  0  0  0  0  0  0  0
    6.5255    1.3480    1.8949 H   0  0  0  0  0  0  0  0  0  0  0  0
    3.8417    2.5023   -1.1820 H   0  0  0  0  0  0  0  0  0  0  0  0
    3.3082    2.6233    0.4936 H   0  0  0  0  0  0  0  0  0  0  0  0
    3.8909   -4.2018   -1.2515 H   0  0  0  0  0  0  0  0  0  0  0  0
    3.3623   -4.3590    0.4264 H   0  0  0  0  0  0  0  0  0  0  0  0
    1.5607   -4.3042   -1.5031 H   0  0  0  0  0  0  0  0  0  0  0  0
    5.2285    3.9141   -1.7205 H   0  0  0  0  0  0  0  0  0  0  0  0
   -2.1611   -1.9060    2.4127 H   0  0  0  0  0  0  0  0  0  0  0  0
   -1.4840    0.7779   -0.8992 H   0  0  0  0  0  0  0  0  0  0  0  0
   -2.9032   -1.9837   -0.6439 H   0  0  0  0  0  0  0  0  0  0  0  0
   -3.1871   -3.2657   -1.7255 H   0  0  0  0  0  0  0  0  0  0  0  0
    7.0269    4.0549   -3.3329 H   0  0  0  0  0  0  0  0  0  0  0  0
    8.1275    3.0205   -2.2610 H   0  0  0  0  0  0  0  0  0  0  0  0
   -4.2965   -0.7757    2.8843 H   0  0  0  0  0  0  0  0  0  0  0  0
   -3.5924    1.9100   -0.4202 H   0  0  0  0  0  0  0  0  0  0  0  0
   -5.9002   -0.4200   -0.4563 H   0  0  0  0  0  0  0  0  0  0  0  0
   -6.5407    3.5492    1.1106 H   0  0  0  0  0  0  0  0  0  0  0  0
   -7.3641    0.0983   -2.3591 H   0  0  0  0  0  0  0  0  0  0  0  0
   -8.0279    4.0491   -0.8050 H   0  0  0  0  0  0  0  0  0  0  0  0
   -8.4398    2.3262   -2.5419 H   0  0  0  0  0  0  0  0  0  0  0  0
  1 20  2  0  0  0  0
  2 22  2  0  0  0  0
  3 29  1  0  0  0  0
  3 30  1  0  0  0  0
  4  7  1  0  0  0  0
  4 10  1  0  0  0  0
  4 17  1  0  0  0  0
  5 14  1  0  0  0  0
  5 15  1  0  0  0  0
  5 20  1  0  0  0  0
  6 16  1  0  0  0  0
  6 17  1  0  0  0  0
  6 50  1  0  0  0  0
  7 19  2  0  0  0  0
  8 22  1  0  0  0  0
  8 54  1  0  0  0  0
  8 55  1  0  0  0  0
  9 10  1  0  0  0  0
  9 11  1  0  0  0  0
  9 12  1  0  0  0  0
  9 36  1  0  0  0  0
 10 13  1  0  0  0  0
 10 37  1  0  0  0  0
 11 14  1  0  0  0  0
 11 38  1  0  0  0  0
 11 39  1  0  0  0  0
 12 15  1  0  0  0  0
 12 40  1  0  0  0  0
 12 41  1  0  0  0  0
 13 16  1  0  0  0  0
 13 42  1  0  0  0  0
 13 43  1  0  0  0  0
 14 44  1  0  0  0  0
 14 45  1  0  0  0  0
 15 46  1  0  0  0  0
 15 47  1  0  0  0  0
 16 48  1  0  0  0  0
 16 49  1  0  0  0  0
 17 18  2  0  0  0  0
 18 19  1  0  0  0  0
 18 22  1  0  0  0  0
 19 21  1  0  0  0  0
 20 23  1  0  0  0  0
 21 24  2  0  0  0  0
 21 25  1  0  0  0  0
 23 26  2  0  0  0  0
 23 51  1  0  0  0  0
 24 27  1  0  0  0  0
 24 52  1  0  0  0  0
 25 28  2  0  0  0  0
 25 53  1  0  0  0  0
 26 56  1  0  0  0  0
 26 57  1  0  0  0  0
 27 29  2  0  0  0  0
 27 58  1  0  0  0  0
 28 29  1  0  0  0  0
 28 59  1  0  0  0  0
 30 31  2  0  0  0  0
 30 32  1  0  0  0  0
 31 33  1  0  0  0  0
 31 60  1  0  0  0  0
 32 34  2  0  0  0  0
 32 61  1  0  0  0  0
 33 35  2  0  0  0  0
 33 62  1  0  0  0  0
 34 35  1  0  0  0  0
 34 63  1  0  0  0  0
 35 64  1  0  0  0  0
M  END
> <PUBCHEM_COMPOUND_CID>
135565884

> <PUBCHEM_CONFORMER_RMSD>
1

> <PUBCHEM_CONFORMER_DIVERSEORDER>
3
46
33
26
52
35
16
41
57
7
29
59
2
28
50
5
39
23
55
42
17
60
30
31
47
32
24
43
19
44
51
40
13
38
1
25
11
53
49
58
36
6
4
45
15
9
48
21
22
14
54
56
18
27
10
8
12
34
37
20

> <PUBCHEM_MMFF94_PARTIAL_CHARGES>
46
1 -0.57
10 0.26
14 0.3
15 0.3
16 0.37
17 -0.07
18 -0.09
19 0.23
2 -0.57
20 0.62
21 0.05
22 0.72
23 -0.14
24 -0.15
25 -0.15
26 -0.3
27 -0.15
28 -0.15
29 0.08
3 -0.17
30 0.08
31 -0.15
32 -0.15
33 -0.15
34 -0.15
35 -0.15
4 0.31
5 -0.66
50 0.4
51 0.15
52 0.15
53 0.15
54 0.37
55 0.37
56 0.15
57 0.15
58 0.15
59 0.15
6 -0.85
60 0.15
61 0.15
62 0.15
63 0.15
64 0.15
7 -0.71
8 -0.8

> <PUBCHEM_EFFECTIVE_ROTOR_COUNT>
9

> <PUBCHEM_PHARMACOPHORE_FEATURES>
13
1 1 acceptor
1 2 acceptor
1 26 hydrophobe
1 3 acceptor
1 6 cation
1 6 donor
1 7 acceptor
1 8 donor
5 4 7 17 18 19 rings
6 21 24 25 27 28 29 rings
6 30 31 32 33 34 35 rings
6 4 6 10 13 16 17 rings
6 5 9 11 12 14 15 rings

> <PUBCHEM_HEAVY_ATOM_COUNT>
35

> <PUBCHEM_ATOM_DEF_STEREO_COUNT>
1

> <PUBCHEM_ATOM_UDEF_STEREO_COUNT>
0

> <PUBCHEM_BOND_DEF_STEREO_COUNT>
0

> <PUBCHEM_BOND_UDEF_STEREO_COUNT>
0

> <PUBCHEM_ISOTOPIC_ATOM_COUNT>
0

> <PUBCHEM_COMPONENT_COUNT>
1

> <PUBCHEM_CACTVS_TAUTO_COUNT>
-1

> <PUBCHEM_CONFORMER_ID>
0814923C00000003

> <PUBCHEM_MMFF94_ENERGY>
103.5292

> <PUBCHEM_FEATURE_SELFOVERLAP>
66.088

> <PUBCHEM_SHAPE_FINGERPRINT>
10280341 67 18197210572319879736
10864689 126 18341899627870887576
11135609 187 18129929127473135593
11297010 23 18059860550360199494
11374522 174 18337686259877407076
11374522 72 18186802474168698461
11621639 179 18260841419253233204
11828042 200 17911504704887900879
12061779 8 17533509069820528924
13540713 5 18268974519142748522
1361 2 18270954640688433043
13878862 14 18337662006238738454
13911987 19 18131071528697323913
13947947 140 9943541699230468585
14117953 113 18341894061782389824
14294032 229 18198911490130162715
14747282 540 18260550009384872356
14931854 50 17917999377537028816
15082195 135 18199470952685644915
15131766 46 18043244841936396860
15198563 99 17550670349758376110
15274700 147 17397274197180985661
15350500 55 18113898273288627816
15352257 5 11455593414695970349
15705408 1 16909489701739287007
15803439 3 17275111651473210214
15950262 2 17822016453486371056
16120349 189 18336549407803576148
19053607 189 18410288129694013592
20691028 202 18115869779727165292
21033648 29 17385730175407588619
21033650 10 15410355272757865762
23559900 14 17606141514543593475
23569943 247 10375874070046561781
23576562 1 18342185440241990518
25025965 108 13970357819849537916
27425 322 18259980478997513154
3388396 114 16754942883866963196
3411729 13 18260269638071116568
3552219 110 16884708260169384050
397830 11 18114195133428478627
4169191 19 18261114067418327353
4258327 124 18410856598848376739
44880568 143 18192424179191947893
45377200 153 15050870049932036693
4756326 101 16443608144544045453
504843 32 18338234968378813203
5104073 3 13190927298071811433
57527295 17 14979414884490821922
6058803 2 16984909654454186115
6201320 77 12462448205408757429
6201460 15 11381628094912074468
6327066 14 18411417340840740584

> <PUBCHEM_SHAPE_MULTIPOLES>
677.77
21.88
5.21
1.82
12.86
1.32
-0.16
-32.35
-5.41
-6.01
-3.45
0.15
-0.19
-1.33

> <PUBCHEM_SHAPE_SELFOVERLAP>
1479.918

> <PUBCHEM_SHAPE_VOLUME>
364.3

> <PUBCHEM_COORDINATE_TYPE>
2
5
10

$$$$
46848036
  -OEChem-11282412143D

 70 74  0     0  0  0  0  0  0999 V2000
    2.6895    2.6942    0.7652 F   0  0  0  0  0  0  0  0  0  0  0  0
    4.1708    1.9321    2.1626 F   0  0  0  0  0  0  0  0  0  0  0  0
    4.5980    1.9493    0.0364 F   0  0  0  0  0  0  0  0  0  0  0  0
   -0.9350   -0.2365   -0.4672 O   0  0  0  0  0  0  0  0  0  0  0  0
    6.0338   -0.3413    0.0699 N   0  0  0  0  0  0  0  0  0  0  0  0
    8.3184   -0.5664   -1.6874 N   0  0  0  0  0  0  0  0  0  0  0  0
   -0.9720   -2.3383    0.5754 N   0  0  0  0  0  0  0  0  0  0  0  0
   -4.0592   -4.3543    0.9006 N   0  0  0  0  0  0  0  0  0  0  0  0
   -5.5369   -1.4634   -0.8721 N   0  0  0  0  0  0  0  0  0  0  0  0
   -4.6660    0.6716   -0.4410 N   0  0  0  0  0  0  0  0  0  0  0  0
   -6.7110    0.3967   -1.6862 N   0  0  0  0  0  0  0  0  0  0  0  0
   -2.4140    4.8102   -0.0061 N   0  0  0  0  0  0  0  0  0  0  0  0
    7.3423    0.2067    0.4473 C   0  0  0  0  0  0  0  0  0  0  0  0
    6.2001   -1.4969   -0.8201 C   0  0  0  0  0  0  0  0  0  0  0  0
    8.1533    0.5882   -0.7959 C   0  0  0  0  0  0  0  0  0  0  0  0
    7.0099   -1.1148   -2.0639 C   0  0  0  0  0  0  0  0  0  0  0  0
    5.2622   -0.7065    1.2562 C   0  0  0  0  0  0  0  0  0  0  0  0
    3.7898   -0.8071    0.9583 C   0  0  0  0  0  0  0  0  0  0  0  0
    9.0886   -0.1997   -2.8743 C   0  0  0  0  0  0  0  0  0  0  0  0
    3.0078    0.3384    0.8098 C   0  0  0  0  0  0  0  0  0  0  0  0
    3.2091   -2.0690    0.8321 C   0  0  0  0  0  0  0  0  0  0  0  0
    1.6452    0.2219    0.5350 C   0  0  0  0  0  0  0  0  0  0  0  0
    1.8465   -2.1856    0.5575 C   0  0  0  0  0  0  0  0  0  0  0  0
    1.0646   -1.0401    0.4089 C   0  0  0  0  0  0  0  0  0  0  0  0
    3.6070    1.7003    0.9414 C   0  0  0  0  0  0  0  0  0  0  0  0
   -0.3565   -1.1625    0.1238 C   0  0  0  0  0  0  0  0  0  0  0  0
   -2.3317   -2.7199    0.4654 C   0  0  0  0  0  0  0  0  0  0  0  0
   -3.2610   -1.8918   -0.1542 C   0  0  0  0  0  0  0  0  0  0  0  0
   -4.5889   -2.2935   -0.2471 C   0  0  0  0  0  0  0  0  0  0  0  0
   -2.7775   -3.9301    0.9720 C   0  0  0  0  0  0  0  0  0  0  0  0
   -4.9338   -3.5228    0.2913 C   0  0  0  0  0  0  0  0  0  0  0  0
   -6.3450   -4.0096    0.2220 C   0  0  0  0  0  0  0  0  0  0  0  0
   -5.6437   -0.0628   -1.0055 C   0  0  0  0  0  0  0  0  0  0  0  0
   -4.7978    2.0059   -0.5908 C   0  0  0  0  0  0  0  0  0  0  0  0
   -3.7520    2.7968    0.0127 C   0  0  0  0  0  0  0  0  0  0  0  0
   -5.8435    2.6021   -1.2657 C   0  0  0  0  0  0  0  0  0  0  0  0
   -6.7799    1.7395   -1.7979 C   0  0  0  0  0  0  0  0  0  0  0  0
   -3.0828    2.3537    1.1481 C   0  0  0  0  0  0  0  0  0  0  0  0
   -3.3834    4.0212   -0.5211 C   0  0  0  0  0  0  0  0  0  0  0  0
   -2.0795    3.1376    1.7071 C   0  0  0  0  0  0  0  0  0  0  0  0
   -1.7856    4.3465    1.0976 C   0  0  0  0  0  0  0  0  0  0  0  0
    7.2065    1.1093    1.0557 H   0  0  0  0  0  0  0  0  0  0  0  0
    7.9083   -0.5144    1.0526 H   0  0  0  0  0  0  0  0  0  0  0  0
    6.6974   -2.3273   -0.3005 H   0  0  0  0  0  0  0  0  0  0  0  0
    5.2276   -1.8633   -1.1668 H   0  0  0  0  0  0  0  0  0  0  0  0
    9.1366    0.9478   -0.4692 H   0  0  0  0  0  0  0  0  0  0  0  0
    7.6585    1.4186   -1.3180 H   0  0  0  0  0  0  0  0  0  0  0  0
    6.4415   -0.3936   -2.6671 H   0  0  0  0  0  0  0  0  0  0  0  0
    7.1478   -2.0147   -2.6756 H   0  0  0  0  0  0  0  0  0  0  0  0
    5.6310   -1.6458    1.6926 H   0  0  0  0  0  0  0  0  0  0  0  0
    5.4002    0.0273    2.0593 H   0  0  0  0  0  0  0  0  0  0  0  0
    8.5917    0.5759   -3.4682 H   0  0  0  0  0  0  0  0  0  0  0  0
   10.0813    0.1666   -2.5902 H   0  0  0  0  0  0  0  0  0  0  0  0
    9.2480   -1.0747   -3.5143 H   0  0  0  0  0  0  0  0  0  0  0  0
    3.8072   -2.9706    0.9362 H   0  0  0  0  0  0  0  0  0  0  0  0
    1.0328    1.1135    0.4252 H   0  0  0  0  0  0  0  0  0  0  0  0
    1.4503   -3.1883    0.4289 H   0  0  0  0  0  0  0  0  0  0  0  0
   -0.4108   -3.0104    1.0910 H   0  0  0  0  0  0  0  0  0  0  0  0
   -2.9671   -0.9658   -0.6207 H   0  0  0  0  0  0  0  0  0  0  0  0
   -2.1008   -4.6203    1.4667 H   0  0  0  0  0  0  0  0  0  0  0  0
   -6.3581   -1.9412   -1.2285 H   0  0  0  0  0  0  0  0  0  0  0  0
   -7.0267   -3.2950    0.6945 H   0  0  0  0  0  0  0  0  0  0  0  0
   -6.4540   -4.9639    0.7489 H   0  0  0  0  0  0  0  0  0  0  0  0
   -6.6465   -4.1708   -0.8178 H   0  0  0  0  0  0  0  0  0  0  0  0
   -5.9699    3.6717   -1.3740 H   0  0  0  0  0  0  0  0  0  0  0  0
   -7.6404    2.1155   -2.3410 H   0  0  0  0  0  0  0  0  0  0  0  0
   -3.3252    1.4070    1.6243 H   0  0  0  0  0  0  0  0  0  0  0  0
   -3.8364    4.4323   -1.4179 H   0  0  0  0  0  0  0  0  0  0  0  0
   -1.5447    2.8127    2.5922 H   0  0  0  0  0  0  0  0  0  0  0  0
   -1.0112    4.9947    1.4944 H   0  0  0  0  0  0  0  0  0  0  0  0
  1 25  1  0  0  0  0
  2 25  1  0  0  0  0
  3 25  1  0  0  0  0
  4 26  2  0  0  0  0
  5 13  1  0  0  0  0
  5 14  1  0  0  0  0
  5 17  1  0  0  0  0
  6 15  1  0  0  0  0
  6 16  1  0  0  0  0
  6 19  1  0  0  0  0
  7 26  1  0  0  0  0
  7 27  1  0  0  0  0
  7 58  1  0  0  0  0
  8 30  2  0  0  0  0
  8 31  1  0  0  0  0
  9 29  1  0  0  0  0
  9 33  1  0  0  0  0
  9 61  1  0  0  0  0
 10 33  1  0  0  0  0
 10 34  2  0  0  0  0
 11 33  2  0  0  0  0
 11 37  1  0  0  0  0
 12 39  1  0  0  0  0
 12 41  2  0  0  0  0
 13 15  1  0  0  0  0
 13 42  1  0  0  0  0
 13 43  1  0  0  0  0
 14 16  1  0  0  0  0
 14 44  1  0  0  0  0
 14 45  1  0  0  0  0
 15 46  1  0  0  0  0
 15 47  1  0  0  0  0
 16 48  1  0  0  0  0
 16 49  1  0  0  0  0
 17 18  1  0  0  0  0
 17 50  1  0  0  0  0
 17 51  1  0  0  0  0
 18 20  2  0  0  0  0
 18 21  1  0  0  0  0
 19 52  1  0  0  0  0
 19 53  1  0  0  0  0
 19 54  1  0  0  0  0
 20 22  1  0  0  0  0
 20 25  1  0  0  0  0
 21 23  2  0  0  0  0
 21 55  1  0  0  0  0
 22 24  2  0  0  0  0
 22 56  1  0  0  0  0
 23 24  1  0  0  0  0
 23 57  1  0  0  0  0
 24 26  1  0  0  0  0
 27 28  2  0  0  0  0
 27 30  1  0  0  0  0
 28 29  1  0  0  0  0
 28 59  1  0  0  0  0
 29 31  2  0  0  0  0
 30 60  1  0  0  0  0
 31 32  1  0  0  0  0
 32 62  1  0  0  0  0
 32 63  1  0  0  0  0
 32 64  1  0  0  0  0
 34 35  1  0  0  0  0
 34 36  1  0  0  0  0
 35 38  1  0  0  0  0
 35 39  2  0  0  0  0
 36 37  2  0  0  0  0
 36 65  1  0  0  0  0
 37 66  1  0  0  0  0
 38 40  2  0  0  0  0
 38 67  1  0  0  0  0
 39 68  1  0  0  0  0
 40 41  1  0  0  0  0
 40 69  1  0  0  0  0
 41 70  1  0  0  0  0
M  END
> <PUBCHEM_COMPOUND_CID>
46848036

> <PUBCHEM_CONFORMER_RMSD>
1.2

> <PUBCHEM_CONFORMER_DIVERSEORDER>
1
88
177
154
95
127
104
49
183
151
135
174
23
169
56
160
102
77
142
115
167
175
83
163
157
34
74
45
114
12
146
29
113
85
144
178
39
159
166
179
173
131
105
27
162
78
13
100
136
99
125
19
165
148
36
129
182
43
120
52
82
106
161
47
123
119
109
172
67
153
59
37
92
180
24
150
181
149
122
117
89
75
20
101
171
76
155
73
118
80
51
152
86
50
58
61
98
103
156
69
72
108
116
111
84
8
79
145
87
137
33
18
147
91
112
44
55
176
110
42
68
16
46
128
70
96
41
30
32
7
60
107
132
17
28
126
38
139
130
168
81
170
5
121
141
63
138
21
9
90
35
93
140
11
97
14
6
2
64
40
134
31
25
26
22
94
164
53
143
62
10
124
48
65
133
71
3
158
54
15
57
66
4

> <PUBCHEM_MMFF94_PARTIAL_CHARGES>
53
1 -0.34
10 -0.62
11 -0.62
12 -0.62
13 0.27
14 0.27
15 0.27
16 0.27
17 0.41
18 -0.14
19 0.27
2 -0.34
20 -0.14
21 -0.15
22 -0.15
23 -0.15
24 0.09
25 1.16
26 0.54
27 0.12
28 -0.15
29 0.1
3 -0.34
30 0.16
31 0.17
32 0.14
33 0.72
34 0.31
36 -0.15
37 0.16
38 -0.15
39 0.16
4 -0.57
40 -0.15
41 0.16
5 -0.81
55 0.15
56 0.15
57 0.15
58 0.37
59 0.15
6 -0.81
60 0.15
61 0.4
65 0.15
66 0.15
67 0.15
68 0.15
69 0.15
7 -0.55
70 0.15
8 -0.62
9 -0.6

> <PUBCHEM_EFFECTIVE_ROTOR_COUNT>
10.2

> <PUBCHEM_PHARMACOPHORE_FEATURES>
14
1 10 acceptor
1 12 acceptor
1 4 acceptor
1 5 cation
1 6 cation
1 7 donor
1 8 acceptor
1 9 donor
4 9 10 11 33 cation
6 10 11 33 34 36 37 rings
6 12 35 38 39 40 41 rings
6 18 20 21 22 23 24 rings
6 5 6 13 14 15 16 rings
6 8 27 28 29 30 31 rings

> <PUBCHEM_HEAVY_ATOM_COUNT>
41

> <PUBCHEM_ATOM_DEF_STEREO_COUNT>
0

> <PUBCHEM_ATOM_UDEF_STEREO_COUNT>
0

> <PUBCHEM_BOND_DEF_STEREO_COUNT>
0

> <PUBCHEM_BOND_UDEF_STEREO_COUNT>
0

> <PUBCHEM_ISOTOPIC_ATOM_COUNT>
0

> <PUBCHEM_COMPONENT_COUNT>
1

> <PUBCHEM_CACTVS_TAUTO_COUNT>
6

> <PUBCHEM_CONFORMER_ID>
02CAD82400000001

> <PUBCHEM_MMFF94_ENERGY>
128.6425

> <PUBCHEM_FEATURE_SELFOVERLAP>
71.051

> <PUBCHEM_SHAPE_FINGERPRINT>
10049733 16 18408610240478999516
100830 39 18409444765467082016
10454371 7 18412266112414893980
10951579 204 18410579462121594484
11007060 377 18338801117697339496
11434127 23 18200310996860327765
117089 54 18268428117486386577
12128747 34 18271524200269527670
12645989 146 18126842927352766687
13347071 3 18408881862932380869
13690498 29 18272096019546978478
13947934 56 18408881825058780322
14340393 91 18411142475992850298
14512766 119 18261111824917307270
15001296 14 18262785363151114977
15064981 194 18335710433915150613
15320467 1 18337942390927135473
15328829 1 17603877680273061198
15351339 4 18189313733637210723
15361156 5 18343298158819958903
15400415 2 17689990142144390497
15629462 23 16916232048494531392
15890870 6 18262509296676829333
15968369 153 17987782120750707048
16728433 281 18340216181010585180
21792938 79 15069197816953948639
21792965 302 18188492484461481252
23522609 53 17386010550909913198
23576562 1 18188219788118232228
4197921 191 18187921721023142243
4258327 124 17676779703240741084
42767 28 18411695491454625664
445580 37 18408044000628121318
48014 12 18040721337895692333
49967989 163 18409172129417444151
550186 7 18272367534399584639
6036956 94 17904473010073871189
9980921 221 18338813242690598876

> <PUBCHEM_SHAPE_MULTIPOLES>
776.22
23.42
5.89
1.71
38.34
1.17
-0.71
-2.03
-15.39
-13.46
1.9
2.31
0.58
2.12

> <PUBCHEM_SHAPE_SELFOVERLAP>
1692.45

> <PUBCHEM_SHAPE_VOLUME>
421.6

> <PUBCHEM_COORDINATE_TYPE>
2
5
10

$$$$
71667668
  -OEChem-11282412143D

 83 87  0     1  0  0  0  0  0999 V2000
    4.8400   -1.5057    0.2889 O   0  0  0  0  0  0  0  0  0  0  0  0
    2.2312   -5.7709   -0.8458 O   0  0  0  0  0  0  0  0  0  0  0  0
    3.8200    4.6324   -0.3108 O   0  0  0  0  0  0  0  0  0  0  0  0
   -7.0504    0.2051    0.1941 N   0  0  0  0  0  0  0  0  0  0  0  0
   -2.9332    1.1847   -0.0004 N   0  0  0  0  0  0  0  0  0  0  0  0
   -9.8372   -0.5067   -0.0981 N   0  0  0  0  0  0  0  0  0  0  0  0
    2.8449   -3.8221    0.2405 N   0  0  0  0  0  0  0  0  0  0  0  0
    2.4858    2.5463    0.3762 N   0  0  0  0  0  0  0  0  0  0  0  0
    3.6634    0.4880    0.3395 N   0  0  0  0  0  0  0  0  0  0  0  0
    5.9555    1.8477   -0.5342 N   0  0  0  0  0  0  0  0  0  0  0  0
    6.0182    4.4905   -0.9480 N   0  0  0  0  0  0  0  0  0  0  0  0
   -5.7309    0.5426   -0.3361 C   0  0  0  0  0  0  0  0  0  0  0  0
   -4.7114   -0.5182    0.0846 C   0  0  0  0  0  0  0  0  0  0  0  0
   -5.2806    1.9176    0.1652 C   0  0  0  0  0  0  0  0  0  0  0  0
   -3.3084   -0.1714   -0.4160 C   0  0  0  0  0  0  0  0  0  0  0  0
   -3.8787    2.2573   -0.3400 C   0  0  0  0  0  0  0  0  0  0  0  0
   -8.0499    1.1947   -0.2264 C   0  0  0  0  0  0  0  0  0  0  0  0
   -7.4532   -1.1419   -0.2284 C   0  0  0  0  0  0  0  0  0  0  0  0
   -9.4352    0.8402    0.3251 C   0  0  0  0  0  0  0  0  0  0  0  0
   -8.8380   -1.4958    0.3244 C   0  0  0  0  0  0  0  0  0  0  0  0
   -1.5785    1.5257    0.0933 C   0  0  0  0  0  0  0  0  0  0  0  0
  -11.1575   -0.8444    0.4301 C   0  0  0  0  0  0  0  0  0  0  0  0
   -1.1622    2.4810    1.0204 C   0  0  0  0  0  0  0  0  0  0  0  0
   -0.6451    0.9098   -0.7404 C   0  0  0  0  0  0  0  0  0  0  0  0
    3.9692   -2.0227    1.2894 C   0  0  2  0  0  0  0  0  0  0  0  0
    4.5156   -3.3382    1.8319 C   0  0  0  0  0  0  0  0  0  0  0  0
    2.6496   -2.4264    0.6415 C   0  0  0  0  0  0  0  0  0  0  0  0
    4.0956   -4.3459    0.7708 C   0  0  0  0  0  0  0  0  0  0  0  0
    0.1873    2.8207    1.1139 C   0  0  0  0  0  0  0  0  0  0  0  0
    0.7046    1.2495   -0.6471 C   0  0  0  0  0  0  0  0  0  0  0  0
    1.1207    2.2049    0.2800 C   0  0  0  0  0  0  0  0  0  0  0  0
    2.0089   -4.6007   -0.5366 C   0  0  0  0  0  0  0  0  0  0  0  0
    4.8234   -0.1531    0.0949 C   0  0  0  0  0  0  0  0  0  0  0  0
    3.6696    1.8208    0.1395 C   0  0  0  0  0  0  0  0  0  0  0  0
    5.9493    0.5148   -0.3342 C   0  0  0  0  0  0  0  0  0  0  0  0
    0.7658   -3.9634   -1.0137 C   0  0  0  0  0  0  0  0  0  0  0  0
    4.7953    2.4886   -0.2896 C   0  0  0  0  0  0  0  0  0  0  0  0
    7.2233   -0.2112   -0.6003 C   0  0  0  0  0  0  0  0  0  0  0  0
    7.9648   -0.5752    0.6839 C   0  0  0  0  0  0  0  0  0  0  0  0
   -0.0746   -4.6748   -1.7679 C   0  0  0  0  0  0  0  0  0  0  0  0
    4.8226    3.9258   -0.5141 C   0  0  0  0  0  0  0  0  0  0  0  0
   -5.7659    0.5686   -1.4352 H   0  0  0  0  0  0  0  0  0  0  0  0
   -4.6920   -0.6156    1.1783 H   0  0  0  0  0  0  0  0  0  0  0  0
   -4.9312   -1.5048   -0.3342 H   0  0  0  0  0  0  0  0  0  0  0  0
   -5.2864    1.9413    1.2631 H   0  0  0  0  0  0  0  0  0  0  0  0
   -5.9325    2.7234   -0.1851 H   0  0  0  0  0  0  0  0  0  0  0  0
   -2.6123   -0.9127   -0.0035 H   0  0  0  0  0  0  0  0  0  0  0  0
   -3.2763   -0.2487   -1.5102 H   0  0  0  0  0  0  0  0  0  0  0  0
   -3.8929    2.3931   -1.4290 H   0  0  0  0  0  0  0  0  0  0  0  0
   -3.5831    3.2178    0.0979 H   0  0  0  0  0  0  0  0  0  0  0  0
   -8.0947    1.2732   -1.3210 H   0  0  0  0  0  0  0  0  0  0  0  0
   -7.8293    2.1890    0.1719 H   0  0  0  0  0  0  0  0  0  0  0  0
   -7.4527   -1.2340   -1.3227 H   0  0  0  0  0  0  0  0  0  0  0  0
   -6.7928   -1.9130    0.1780 H   0  0  0  0  0  0  0  0  0  0  0  0
   -9.4287    0.9204    1.4209 H   0  0  0  0  0  0  0  0  0  0  0  0
  -10.1558    1.5765   -0.0515 H   0  0  0  0  0  0  0  0  0  0  0  0
   -9.1175   -2.4874   -0.0522 H   0  0  0  0  0  0  0  0  0  0  0  0
   -8.7935   -1.5632    1.4201 H   0  0  0  0  0  0  0  0  0  0  0  0
  -11.4725   -1.8318    0.0748 H   0  0  0  0  0  0  0  0  0  0  0  0
  -11.9077   -0.1290    0.0754 H   0  0  0  0  0  0  0  0  0  0  0  0
  -11.1773   -0.8498    1.5259 H   0  0  0  0  0  0  0  0  0  0  0  0
   -1.8719    2.9612    1.6892 H   0  0  0  0  0  0  0  0  0  0  0  0
   -0.9356    0.1743   -1.4852 H   0  0  0  0  0  0  0  0  0  0  0  0
    3.8382   -1.3020    2.1059 H   0  0  0  0  0  0  0  0  0  0  0  0
    4.0282   -3.5808    2.7836 H   0  0  0  0  0  0  0  0  0  0  0  0
    5.5998   -3.3347    1.9762 H   0  0  0  0  0  0  0  0  0  0  0  0
    1.8280   -2.4101    1.3656 H   0  0  0  0  0  0  0  0  0  0  0  0
    2.3845   -1.8258   -0.2327 H   0  0  0  0  0  0  0  0  0  0  0  0
    4.8159   -4.3866   -0.0540 H   0  0  0  0  0  0  0  0  0  0  0  0
    3.9600   -5.3557    1.1693 H   0  0  0  0  0  0  0  0  0  0  0  0
    0.4992    3.5636    1.8437 H   0  0  0  0  0  0  0  0  0  0  0  0
    1.4111    0.7663   -1.3168 H   0  0  0  0  0  0  0  0  0  0  0  0
    2.6461    3.4215    0.8677 H   0  0  0  0  0  0  0  0  0  0  0  0
    0.5183   -2.9433   -0.7519 H   0  0  0  0  0  0  0  0  0  0  0  0
    7.0269   -1.1156   -1.1885 H   0  0  0  0  0  0  0  0  0  0  0  0
    7.8781    0.4156   -1.2185 H   0  0  0  0  0  0  0  0  0  0  0  0
    8.1940    0.3200    1.2721 H   0  0  0  0  0  0  0  0  0  0  0  0
    8.9083   -1.0759    0.4444 H   0  0  0  0  0  0  0  0  0  0  0  0
    7.3763   -1.2494    1.3143 H   0  0  0  0  0  0  0  0  0  0  0  0
   -0.9962   -4.2210   -2.1189 H   0  0  0  0  0  0  0  0  0  0  0  0
    0.1075   -5.7025   -2.0612 H   0  0  0  0  0  0  0  0  0  0  0  0
    6.0939    5.4885   -1.1139 H   0  0  0  0  0  0  0  0  0  0  0  0
    6.8499    3.9323   -1.1126 H   0  0  0  0  0  0  0  0  0  0  0  0
  1 25  1  0  0  0  0
  1 33  1  0  0  0  0
  2 32  2  0  0  0  0
  3 41  2  0  0  0  0
  4 12  1  0  0  0  0
  4 17  1  0  0  0  0
  4 18  1  0  0  0  0
  5 15  1  0  0  0  0
  5 16  1  0  0  0  0
  5 21  1  0  0  0  0
  6 19  1  0  0  0  0
  6 20  1  0  0  0  0
  6 22  1  0  0  0  0
  7 27  1  0  0  0  0
  7 28  1  0  0  0  0
  7 32  1  0  0  0  0
  8 31  1  0  0  0  0
  8 34  1  0  0  0  0
  8 73  1  0  0  0  0
  9 33  1  0  0  0  0
  9 34  2  0  0  0  0
 10 35  1  0  0  0  0
 10 37  2  0  0  0  0
 11 41  1  0  0  0  0
 11 82  1  0  0  0  0
 11 83  1  0  0  0  0
 12 13  1  0  0  0  0
 12 14  1  0  0  0  0
 12 42  1  0  0  0  0
 13 15  1  0  0  0  0
 13 43  1  0  0  0  0
 13 44  1  0  0  0  0
 14 16  1  0  0  0  0
 14 45  1  0  0  0  0
 14 46  1  0  0  0  0
 15 47  1  0  0  0  0
 15 48  1  0  0  0  0
 16 49  1  0  0  0  0
 16 50  1  0  0  0  0
 17 19  1  0  0  0  0
 17 51  1  0  0  0  0
 17 52  1  0  0  0  0
 18 20  1  0  0  0  0
 18 53  1  0  0  0  0
 18 54  1  0  0  0  0
 19 55  1  0  0  0  0
 19 56  1  0  0  0  0
 20 57  1  0  0  0  0
 20 58  1  0  0  0  0
 21 23  2  0  0  0  0
 21 24  1  0  0  0  0
 22 59  1  0  0  0  0
 22 60  1  0  0  0  0
 22 61  1  0  0  0  0
 23 29  1  0  0  0  0
 23 62  1  0  0  0  0
 24 30  2  0  0  0  0
 24 63  1  0  0  0  0
 25 26  1  0  0  0  0
 25 27  1  0  0  0  0
 25 64  1  0  0  0  0
 26 28  1  0  0  0  0
 26 65  1  0  0  0  0
 26 66  1  0  0  0  0
 27 67  1  0  0  0  0
 27 68  1  0  0  0  0
 28 69  1  0  0  0  0
 28 70  1  0  0  0  0
 29 31  2  0  0  0  0
 29 71  1  0  0  0  0
 30 31  1  0  0  0  0
 30 72  1  0  0  0  0
 32 36  1  0  0  0  0
 33 35  2  0  0  0  0
 34 37  1  0  0  0  0
 35 38  1  0  0  0  0
 36 40  2  0  0  0  0
 36 74  1  0  0  0  0
 37 41  1  0  0  0  0
 38 39  1  0  0  0  0
 38 75  1  0  0  0  0
 38 76  1  0  0  0  0
 39 77  1  0  0  0  0
 39 78  1  0  0  0  0
 39 79  1  0  0  0  0
 40 80  1  0  0  0  0
 40 81  1  0  0  0  0
M  END
> <PUBCHEM_COMPOUND_CID>
71667668

> <PUBCHEM_CONFORMER_RMSD>
1.2

> <PUBCHEM_CONFORMER_DIVERSEORDER>
1
18
27
23
16
33
61
26
49
64
29
57
41
45
51
50
43
44
60
56
47
30
39
22
36
9
15
19
34
35
58
6
14
4
3
55
28
37
66
63
40
12
31
11
2
42
8
38
48
7
20
54
32
21
17
46
53
24
13
52
25
65
59
62
10
5

> <PUBCHEM_MMFF94_PARTIAL_CHARGES>
47
1 -0.36
10 -0.62
11 -0.8
12 0.27
15 0.37
16 0.37
17 0.27
18 0.27
19 0.27
2 -0.57
20 0.27
21 0.1
22 0.27
23 -0.15
24 -0.15
25 0.28
27 0.3
28 0.3
29 -0.15
3 -0.57
30 -0.15
31 0.1
32 0.62
33 0.39
34 0.41
35 0.17
36 -0.14
37 0.4
38 0.14
4 -0.81
40 -0.3
41 0.54
5 -0.84
6 -0.81
62 0.15
63 0.15
7 -0.66
71 0.15
72 0.15
73 0.4
74 0.15
8 -0.6
80 0.15
81 0.15
82 0.37
83 0.37
9 -0.62

> <PUBCHEM_EFFECTIVE_ROTOR_COUNT>
13.4

> <PUBCHEM_PHARMACOPHORE_FEATURES>
17
1 1 acceptor
1 10 acceptor
1 11 donor
1 2 acceptor
1 3 acceptor
1 39 hydrophobe
1 4 cation
1 40 hydrophobe
1 5 cation
1 6 cation
1 8 donor
3 8 9 34 cation
5 7 25 26 27 28 rings
6 21 23 24 29 30 31 rings
6 4 6 17 18 19 20 rings
6 5 12 13 14 15 16 rings
6 9 10 33 34 35 37 rings

> <PUBCHEM_HEAVY_ATOM_COUNT>
41

> <PUBCHEM_ATOM_DEF_STEREO_COUNT>
1

> <PUBCHEM_ATOM_UDEF_STEREO_COUNT>
0

> <PUBCHEM_BOND_DEF_STEREO_COUNT>
0

> <PUBCHEM_BOND_UDEF_STEREO_COUNT>
0

> <PUBCHEM_ISOTOPIC_ATOM_COUNT>
0

> <PUBCHEM_COMPONENT_COUNT>
1

> <PUBCHEM_CACTVS_TAUTO_COUNT>
20

> <PUBCHEM_CONFORMER_ID>
04458FD400000001

> <PUBCHEM_MMFF94_ENERGY>
135.5397

> <PUBCHEM_FEATURE_SELFOVERLAP>
86.275

> <PUBCHEM_SHAPE_FINGERPRINT>
10050765 1 18267023848329035597
10580692 12 18338234865784777905
11103572 155 18409165524822982783
11135926 11 18340476834069644007
11181472 205 18337393739242180513
117089 54 17983297023589701238
12522641 24 18201998850493926673
13165054 189 18342738564137659240
13383668 1 18341324570936564887
1361 2 18338797815168266282
13692114 37 18410287047852306754
13989917 61 18339642227050433579
14017579 104 12463573942697464623
14675020 138 18270102635268307032
15264996 19 18051418671195343350
15328684 2 17631744764351742619
15347591 1 18336826382668118213
15890870 6 18410859867503657734
15927050 60 18196932399338608158
17324776 126 16956733534125016306
18365409 1 17977672231935321908
19301679 30 18198623238211549273
19319366 153 18341886433751823068
19841028 212 18261952934338622827
20028762 73 18342459210885310014
21133410 62 18115573851863419654
22899556 105 17979367357450297582
24204213 200 18130518478876433983
4073 2 18188494708557838081
45270241 37 18261396680234311293
9831232 110 18336541599901249917

> <PUBCHEM_SHAPE_MULTIPOLES>
786.3
28.04
6.87
1.06
75.32
6.45
0.07
-0.74
2.33
-13.64
-1.48
-0.94
0.73
-2.07

> <PUBCHEM_SHAPE_SELFOVERLAP>
1667.874

> <PUBCHEM_SHAPE_VOLUME>
437.8

> <PUBCHEM_COORDINATE_TYPE>
2
5
10

$$$$
25145656
  -OEChem-11282412143D

 48 52  0     0  0  0  0  0  0999 V2000
   -3.3573   -0.2953   -1.7865 F   0  0  0  0  0  0  0  0  0  0  0  0
   -5.7020    0.2346    1.3770 O   0  0  0  0  0  0  0  0  0  0  0  0
    2.5192    1.8469   -0.2821 N   0  0  0  0  0  0  0  0  0  0  0  0
    1.2649    1.3488   -0.3545 N   0  0  0  0  0  0  0  0  0  0  0  0
    4.2052    3.1968    0.2246 N   0  0  0  0  0  0  0  0  0  0  0  0
    1.9725    3.8141    0.9262 N   0  0  0  0  0  0  0  0  0  0  0  0
    1.3756   -4.3442    1.3570 N   0  0  0  0  0  0  0  0  0  0  0  0
   -5.7344    0.2148   -0.9414 N   0  0  0  0  0  0  0  0  0  0  0  0
    3.6283   -0.0491   -1.5586 C   0  0  0  0  0  0  0  0  0  0  0  0
    3.6425    1.2644   -0.8023 C   0  0  0  0  0  0  0  0  0  0  0  0
    3.0263   -1.1799   -0.7962 C   0  0  0  0  0  0  0  0  0  0  0  0
    1.7284   -1.5993   -1.0735 C   0  0  0  0  0  0  0  0  0  0  0  0
    2.9001    3.0227    0.3335 C   0  0  0  0  0  0  0  0  0  0  0  0
    1.1569   -2.6645   -0.3570 C   0  0  0  0  0  0  0  0  0  0  0  0
    4.6689    2.1146   -0.4756 C   0  0  0  0  0  0  0  0  0  0  0  0
    3.7571   -1.8217    0.1961 C   0  0  0  0  0  0  0  0  0  0  0  0
    0.3645    2.0824    0.2283 C   0  0  0  0  0  0  0  0  0  0  0  0
    1.8930   -3.3206    0.6518 C   0  0  0  0  0  0  0  0  0  0  0  0
   -1.0518    1.6470    0.2449 C   0  0  0  0  0  0  0  0  0  0  0  0
    3.1887   -2.8806    0.9084 C   0  0  0  0  0  0  0  0  0  0  0  0
    0.7530    3.3861    0.8808 C   0  0  0  0  0  0  0  0  0  0  0  0
   -0.1474   -3.1070   -0.6156 C   0  0  0  0  0  0  0  0  0  0  0  0
   -1.5534    0.8658   -0.7961 C   0  0  0  0  0  0  0  0  0  0  0  0
   -1.8833    2.0182    1.3015 C   0  0  0  0  0  0  0  0  0  0  0  0
   -3.7181    0.8266    0.2762 C   0  0  0  0  0  0  0  0  0  0  0  0
   -2.8865    0.4555   -0.7805 C   0  0  0  0  0  0  0  0  0  0  0  0
   -3.2165    1.6081    1.3170 C   0  0  0  0  0  0  0  0  0  0  0  0
   -0.6833   -4.1616    0.1095 C   0  0  0  0  0  0  0  0  0  0  0  0
    0.1131   -4.7408    1.0764 C   0  0  0  0  0  0  0  0  0  0  0  0
   -5.1083    0.4006    0.2966 C   0  0  0  0  0  0  0  0  0  0  0  0
   -7.1160   -0.1834   -1.0864 C   0  0  0  0  0  0  0  0  0  0  0  0
    4.6558   -0.3124   -1.8428 H   0  0  0  0  0  0  0  0  0  0  0  0
    3.0958    0.1039   -2.5066 H   0  0  0  0  0  0  0  0  0  0  0  0
    1.1546   -1.1063   -1.8560 H   0  0  0  0  0  0  0  0  0  0  0  0
    5.7182    2.0048   -0.7075 H   0  0  0  0  0  0  0  0  0  0  0  0
    4.7721   -1.5103    0.4286 H   0  0  0  0  0  0  0  0  0  0  0  0
    3.7818   -3.3666    1.6809 H   0  0  0  0  0  0  0  0  0  0  0  0
   -0.0559    3.9930    1.3122 H   0  0  0  0  0  0  0  0  0  0  0  0
   -0.7536   -2.6312   -1.3831 H   0  0  0  0  0  0  0  0  0  0  0  0
   -0.9266    0.5710   -1.6332 H   0  0  0  0  0  0  0  0  0  0  0  0
   -1.5190    2.6020    2.1414 H   0  0  0  0  0  0  0  0  0  0  0  0
   -3.8480    1.9061    2.1501 H   0  0  0  0  0  0  0  0  0  0  0  0
   -1.6902   -4.5159   -0.0770 H   0  0  0  0  0  0  0  0  0  0  0  0
   -0.2524   -5.5687    1.6750 H   0  0  0  0  0  0  0  0  0  0  0  0
   -5.2235    0.4151   -1.7956 H   0  0  0  0  0  0  0  0  0  0  0  0
   -7.2121   -0.7740   -2.0003 H   0  0  0  0  0  0  0  0  0  0  0  0
   -7.7265    0.7194   -1.1654 H   0  0  0  0  0  0  0  0  0  0  0  0
   -7.4396   -0.7715   -0.2241 H   0  0  0  0  0  0  0  0  0  0  0  0
  1 26  1  0  0  0  0
  2 30  2  0  0  0  0
  3  4  1  0  0  0  0
  3 10  1  0  0  0  0
  3 13  1  0  0  0  0
  4 17  2  0  0  0  0
  5 13  2  0  0  0  0
  5 15  1  0  0  0  0
  6 13  1  0  0  0  0
  6 21  2  0  0  0  0
  7 18  1  0  0  0  0
  7 29  2  0  0  0  0
  8 30  1  0  0  0  0
  8 31  1  0  0  0  0
  8 45  1  0  0  0  0
  9 10  1  0  0  0  0
  9 11  1  0  0  0  0
  9 32  1  0  0  0  0
  9 33  1  0  0  0  0
 10 15  2  0  0  0  0
 11 12  2  0  0  0  0
 11 16  1  0  0  0  0
 12 14  1  0  0  0  0
 12 34  1  0  0  0  0
 14 18  2  0  0  0  0
 14 22  1  0  0  0  0
 15 35  1  0  0  0  0
 16 20  2  0  0  0  0
 16 36  1  0  0  0  0
 17 19  1  0  0  0  0
 17 21  1  0  0  0  0
 18 20  1  0  0  0  0
 19 23  2  0  0  0  0
 19 24  1  0  0  0  0
 20 37  1  0  0  0  0
 21 38  1  0  0  0  0
 22 28  2  0  0  0  0
 22 39  1  0  0  0  0
 23 26  1  0  0  0  0
 23 40  1  0  0  0  0
 24 27  2  0  0  0  0
 24 41  1  0  0  0  0
 25 26  2  0  0  0  0
 25 27  1  0  0  0  0
 25 30  1  0  0  0  0
 27 42  1  0  0  0  0
 28 29  1  0  0  0  0
 28 43  1  0  0  0  0
 29 44  1  0  0  0  0
 31 46  1  0  0  0  0
 31 47  1  0  0  0  0
 31 48  1  0  0  0  0
M  END
> <PUBCHEM_COMPOUND_CID>
25145656

> <PUBCHEM_CONFORMER_RMSD>
0.8

> <PUBCHEM_CONFORMER_DIVERSEORDER>
1
65
136
139
86
77
66
28
37
121
78
144
51
57
85
58
114
124
41
110
123
117
140
87
59
127
42
30
73
99
12
130
4
120
74
19
95
138
111
18
70
93
145
108
38
105
48
101
122
142
6
5
112
118
143
69
102
22
62
39
94
50
72
44
54
61
141
91
128
113
45
132
109
126
8
63
67
92
88
100
40
3
24
107
90
20
84
134
14
131
83
15
96
116
104
133
2
76
26
125
135
53
103
79
46
34
56
75
71
31
146
23
98
43
80
7
97
81
60
82
68
27
119
29
13
25
129
137
49
89
47
11
21
115
33
9
106
17
64
32
36
55
35
16
10
52

> <PUBCHEM_MMFF94_PARTIAL_CHARGES>
42
1 -0.19
10 -0.33
11 -0.14
12 -0.15
13 0.31
15 0.08
16 -0.15
17 0.36
18 0.31
19 0.09
2 -0.57
20 -0.15
21 0.39
22 -0.15
23 -0.15
24 -0.15
25 0.09
26 0.19
27 -0.15
28 -0.15
29 0.16
3 0.51
30 0.54
31 0.3
34 0.15
35 0.15
36 0.15
37 0.15
38 0.06
39 0.15
4 -0.65
40 0.15
41 0.15
42 0.15
43 0.15
44 0.15
45 0.37
5 -0.57
6 -0.58
7 -0.62
8 -0.73
9 0.32

> <PUBCHEM_EFFECTIVE_ROTOR_COUNT>
5

> <PUBCHEM_PHARMACOPHORE_FEATURES>
11
1 2 acceptor
1 4 acceptor
1 6 acceptor
1 7 acceptor
1 8 donor
4 3 5 6 13 cation
5 3 5 10 13 15 rings
6 11 12 14 16 18 20 rings
6 19 23 24 25 26 27 rings
6 3 4 6 13 17 21 rings
6 7 14 18 22 28 29 rings

> <PUBCHEM_HEAVY_ATOM_COUNT>
31

> <PUBCHEM_ATOM_DEF_STEREO_COUNT>
0

> <PUBCHEM_ATOM_UDEF_STEREO_COUNT>
0

> <PUBCHEM_BOND_DEF_STEREO_COUNT>
0

> <PUBCHEM_BOND_UDEF_STEREO_COUNT>
0

> <PUBCHEM_ISOTOPIC_ATOM_COUNT>
0

> <PUBCHEM_COMPONENT_COUNT>
1

> <PUBCHEM_CACTVS_TAUTO_COUNT>
2

> <PUBCHEM_CONFORMER_ID>
017FB13800000001

> <PUBCHEM_MMFF94_ENERGY>
82.3757

> <PUBCHEM_FEATURE_SELFOVERLAP>
56.015

> <PUBCHEM_SHAPE_FINGERPRINT>
10316853 100 18265626561647881723
10940486 97 16103345243965063318
1100329 8 18410008845624954698
11014199 57 17401768523330378431
11135609 187 18340198708804017725
12128747 34 17467398506269609945
12156800 1 17838591690174977642
12553582 1 17908994205485102516
12597179 24 18114464569321792339
13140716 1 18409736149102389778
1361 2 18409167740282302809
14675020 138 18341033194799752977
15110567 62 18409739434472556113
15351339 4 18123169458977927947
15483637 11 17977950408018588755
15927050 60 18268991071160191182
16993438 75 17693934507211898742
17134984 74 18338509850717290127
17138139 8 17844229947157855055
19026451 147 18266451023359363259
19319366 153 18410011052399407871
19930381 70 18265060123911880683
20028762 73 18200031720896706086
20511986 3 17632568371170071701
20764821 26 18410291453766345139
20775438 99 18201998863078395230
20775530 9 17467362118863117394
21133410 52 18265884762614625274
21304304 249 18411694384270999464
21421861 104 18198075685030621256
23516275 137 16986346925898393855
23845131 108 18261389009391013091
3882209 13 17324333248386540251
392239 28 18411992355521119291
4058900 60 18337402607447384845
463206 1 18413392046370004453
484989 97 18264224641257314914
5309563 4 18194960734292235675
653340 110 17691967476583016306
7097593 13 17473840428462411636
9777508 108 18050289468416405802
9896288 288 17550950292106072250

> <PUBCHEM_SHAPE_MULTIPOLES>
594.94
10.79
6.21
1.33
18.7
4.85
-0.05
-3.29
-2.38
-6.62
2.71
0.55
0.22
-1.03

> <PUBCHEM_SHAPE_SELFOVERLAP>
1335.679

> <PUBCHEM_SHAPE_VOLUME>
315.5

> <PUBCHEM_COORDINATE_TYPE>
2
5
10

$$$$
72734520
  -OEChem-11282412143D

 62 66  0     0  0  0  0  0  0999 V2000
    1.8861   -0.2570    0.5440 F   0  0  0  0  0  0  0  0  0  0  0  0
   -3.5359   -1.5880   -0.7945 O   0  0  0  0  0  0  0  0  0  0  0  0
    2.7741   -3.6352   -0.2103 O   0  0  0  0  0  0  0  0  0  0  0  0
    3.5338    1.8990   -0.0521 N   0  0  0  0  0  0  0  0  0  0  0  0
    6.3190    1.6729   -0.6440 N   0  0  0  0  0  0  0  0  0  0  0  0
   -1.9796    2.5735    0.6565 N   0  0  0  0  0  0  0  0  0  0  0  0
   -4.2901    2.2481    0.7240 N   0  0  0  0  0  0  0  0  0  0  0  0
   -2.7865    0.5022   -0.0626 N   0  0  0  0  0  0  0  0  0  0  0  0
   -6.6090    1.5902    0.6641 N   0  0  0  0  0  0  0  0  0  0  0  0
    0.6557   -3.3696    0.7802 N   0  0  0  0  0  0  0  0  0  0  0  0
    3.9889    0.9990   -1.1194 C   0  0  0  0  0  0  0  0  0  0  0  0
    4.4478    2.9940    0.2870 C   0  0  0  0  0  0  0  0  0  0  0  0
    5.4210    0.5302   -0.8518 C   0  0  0  0  0  0  0  0  0  0  0  0
    5.8657    2.4613    0.5083 C   0  0  0  0  0  0  0  0  0  0  0  0
    2.1557    2.0654    0.1244 C   0  0  0  0  0  0  0  0  0  0  0  0
    7.6935    1.2152   -0.4437 C   0  0  0  0  0  0  0  0  0  0  0  0
    1.3505    0.9661    0.4229 C   0  0  0  0  0  0  0  0  0  0  0  0
    1.5875    3.3335    0.0026 C   0  0  0  0  0  0  0  0  0  0  0  0
   -0.0229    1.1349    0.5994 C   0  0  0  0  0  0  0  0  0  0  0  0
    0.2141    3.5023    0.1789 C   0  0  0  0  0  0  0  0  0  0  0  0
   -0.5911    2.4030    0.4774 C   0  0  0  0  0  0  0  0  0  0  0  0
   -3.0820    1.7274    0.4272 C   0  0  0  0  0  0  0  0  0  0  0  0
   -5.1220    0.0787   -0.0319 C   0  0  0  0  0  0  0  0  0  0  0  0
   -5.2721    1.3660    0.4694 C   0  0  0  0  0  0  0  0  0  0  0  0
   -3.8191   -0.3401   -0.2978 C   0  0  0  0  0  0  0  0  0  0  0  0
   -6.4221   -0.4781   -0.1374 C   0  0  0  0  0  0  0  0  0  0  0  0
   -7.3180    0.4748    0.2985 C   0  0  0  0  0  0  0  0  0  0  0  0
   -2.2094   -1.8932   -1.0188 C   0  0  0  0  0  0  0  0  0  0  0  0
   -1.4474   -2.4760   -0.0062 C   0  0  0  0  0  0  0  0  0  0  0  0
   -1.6302   -1.6203   -2.2582 C   0  0  0  0  0  0  0  0  0  0  0  0
   -0.1063   -2.7860   -0.2327 C   0  0  0  0  0  0  0  0  0  0  0  0
    0.4728   -2.5131   -1.4721 C   0  0  0  0  0  0  0  0  0  0  0  0
   -0.2892   -1.9306   -2.4849 C   0  0  0  0  0  0  0  0  0  0  0  0
    2.0045   -3.7478    0.7367 C   0  0  0  0  0  0  0  0  0  0  0  0
    2.4519   -4.3399    2.0307 C   0  0  0  0  0  0  0  0  0  0  0  0
    3.7104   -4.7627    2.1861 C   0  0  0  0  0  0  0  0  0  0  0  0
    3.3522    0.1129   -1.2155 H   0  0  0  0  0  0  0  0  0  0  0  0
    3.9415    1.5301   -2.0791 H   0  0  0  0  0  0  0  0  0  0  0  0
    4.4571    3.7369   -0.5209 H   0  0  0  0  0  0  0  0  0  0  0  0
    4.1270    3.4968    1.2080 H   0  0  0  0  0  0  0  0  0  0  0  0
    5.4316   -0.1366    0.0211 H   0  0  0  0  0  0  0  0  0  0  0  0
    5.7560   -0.0571   -1.7154 H   0  0  0  0  0  0  0  0  0  0  0  0
    6.5332    3.3176    0.6635 H   0  0  0  0  0  0  0  0  0  0  0  0
    5.8914    1.8570    1.4253 H   0  0  0  0  0  0  0  0  0  0  0  0
    8.0441    0.6577   -1.3194 H   0  0  0  0  0  0  0  0  0  0  0  0
    7.7929    0.5712    0.4377 H   0  0  0  0  0  0  0  0  0  0  0  0
    8.3693    2.0694   -0.3246 H   0  0  0  0  0  0  0  0  0  0  0  0
    2.1809    4.2094   -0.2430 H   0  0  0  0  0  0  0  0  0  0  0  0
   -0.6009    0.2643    0.8852 H   0  0  0  0  0  0  0  0  0  0  0  0
   -0.2175    4.4948    0.0773 H   0  0  0  0  0  0  0  0  0  0  0  0
   -2.2579    3.5214    0.8919 H   0  0  0  0  0  0  0  0  0  0  0  0
   -6.6819   -1.4661   -0.4918 H   0  0  0  0  0  0  0  0  0  0  0  0
   -7.0105    2.4458    1.0221 H   0  0  0  0  0  0  0  0  0  0  0  0
   -8.3956    0.4581    0.3805 H   0  0  0  0  0  0  0  0  0  0  0  0
   -1.9058   -2.6864    0.9574 H   0  0  0  0  0  0  0  0  0  0  0  0
   -2.2179   -1.1669   -3.0517 H   0  0  0  0  0  0  0  0  0  0  0  0
    1.5033   -2.7211   -1.7231 H   0  0  0  0  0  0  0  0  0  0  0  0
    0.1608   -1.7166   -3.4500 H   0  0  0  0  0  0  0  0  0  0  0  0
    0.1541   -3.5331    1.6509 H   0  0  0  0  0  0  0  0  0  0  0  0
    1.7435   -4.4241    2.8476 H   0  0  0  0  0  0  0  0  0  0  0  0
    4.0251   -5.1916    3.1318 H   0  0  0  0  0  0  0  0  0  0  0  0
    4.4511   -4.6975    1.3970 H   0  0  0  0  0  0  0  0  0  0  0  0
  1 17  1  0  0  0  0
  2 25  1  0  0  0  0
  2 28  1  0  0  0  0
  3 34  2  0  0  0  0
  4 11  1  0  0  0  0
  4 12  1  0  0  0  0
  4 15  1  0  0  0  0
  5 13  1  0  0  0  0
  5 14  1  0  0  0  0
  5 16  1  0  0  0  0
  6 21  1  0  0  0  0
  6 22  1  0  0  0  0
  6 51  1  0  0  0  0
  7 22  2  0  0  0  0
  7 24  1  0  0  0  0
  8 22  1  0  0  0  0
  8 25  2  0  0  0  0
  9 24  1  0  0  0  0
  9 27  1  0  0  0  0
  9 53  1  0  0  0  0
 10 31  1  0  0  0  0
 10 34  1  0  0  0  0
 10 59  1  0  0  0  0
 11 13  1  0  0  0  0
 11 37  1  0  0  0  0
 11 38  1  0  0  0  0
 12 14  1  0  0  0  0
 12 39  1  0  0  0  0
 12 40  1  0  0  0  0
 13 41  1  0  0  0  0
 13 42  1  0  0  0  0
 14 43  1  0  0  0  0
 14 44  1  0  0  0  0
 15 17  2  0  0  0  0
 15 18  1  0  0  0  0
 16 45  1  0  0  0  0
 16 46  1  0  0  0  0
 16 47  1  0  0  0  0
 17 19  1  0  0  0  0
 18 20  2  0  0  0  0
 18 48  1  0  0  0  0
 19 21  2  0  0  0  0
 19 49  1  0  0  0  0
 20 21  1  0  0  0  0
 20 50  1  0  0  0  0
 23 24  2  0  0  0  0
 23 25  1  0  0  0  0
 23 26  1  0  0  0  0
 26 27  2  0  0  0  0
 26 52  1  0  0  0  0
 27 54  1  0  0  0  0
 28 29  1  0  0  0  0
 28 30  2  0  0  0  0
 29 31  2  0  0  0  0
 29 55  1  0  0  0  0
 30 33  1  0  0  0  0
 30 56  1  0  0  0  0
 31 32  1  0  0  0  0
 32 33  2  0  0  0  0
 32 57  1  0  0  0  0
 33 58  1  0  0  0  0
 34 35  1  0  0  0  0
 35 36  2  0  0  0  0
 35 60  1  0  0  0  0
 36 61  1  0  0  0  0
 36 62  1  0  0  0  0
M  END
> <PUBCHEM_COMPOUND_CID>
72734520

> <PUBCHEM_CONFORMER_RMSD>
1

> <PUBCHEM_CONFORMER_DIVERSEORDER>
1
247
194
129
250
270
299
260
163
261
96
112
253
35
312
121
217
22
148
277
3
221
310
115
153
175
316
174
306
177
53
202
222
82
309
281
234
120
181
284
229
113
297
269
97
144
152
278
296
151
294
183
48
64
147
267
263
295
172
41
168
49
238
232
74
106
300
315
127
220
87
266
77
150
275
203
186
125
226
36
81
313
118
224
51
111
105
85
303
302
317
215
311
141
142
72
254
319
52
190
180
95
38
307
314
139
207
67
249
282
119
272
159
283
213
128
198
290
30
103
178
245
55
149
231
255
318
61
205
292
230
201
133
273
116
206
47
99
166
39
289
146
50
219
185
70
157
179
31
108
24
209
196
63
60
268
13
243
237
242
135
137
78
123
161
101
100
167
69
265
173
134
212
305
15
285
37
298
293
258
246
291
110
280
114
235
124
251
86
184
170
252
214
301
274
216
248
5
182
256
66
88
276
228
145
279
28
79
259
107
211
122
26
287
126
92
218
169
131
210
188
244
140
83
40
286
225
154
233
16
33
73
195
62
199
155
204
102
189
193
94
308
304
42
320
156
264
32
288
117
80
160
14
165
176
187
57
227
71
56
241
164
191
138
54
192
58
93
239
23
29
236
46
7
76
132
262
8
11
197
130
25
84
2
162
34
43
44
200
12
19
223
75
89
136
17
21
10
59
20
240
171
68
6
271
18
158
4
257
9
45
27
208
104
98
90
65
143
109
91

> <PUBCHEM_MMFF94_PARTIAL_CHARGES>
50
1 -0.19
10 -0.55
11 0.37
12 0.37
13 0.27
14 0.27
15 0.1
16 0.27
17 0.19
18 -0.15
19 -0.15
2 -0.17
20 -0.15
21 0.1
22 0.72
24 0.11
25 0.39
26 -0.15
27 -0.3
28 0.08
29 -0.15
3 -0.57
30 -0.15
31 0.12
32 -0.15
33 -0.15
34 0.62
35 -0.14
36 -0.3
4 -0.84
48 0.15
49 0.15
5 -0.81
50 0.15
51 0.4
52 0.15
53 0.27
54 0.15
55 0.15
56 0.15
57 0.15
58 0.15
59 0.37
6 -0.6
60 0.15
61 0.15
62 0.15
7 -0.57
8 -0.62
9 0.03

> <PUBCHEM_EFFECTIVE_ROTOR_COUNT>
9.2

> <PUBCHEM_PHARMACOPHORE_FEATURES>
14
1 10 donor
1 3 acceptor
1 36 hydrophobe
1 4 cation
1 5 cation
1 6 donor
1 9 cation
1 9 donor
4 6 7 8 22 cation
5 9 23 24 26 27 rings
6 15 17 18 19 20 21 rings
6 28 29 30 31 32 33 rings
6 4 5 11 12 13 14 rings
6 7 8 22 23 24 25 rings

> <PUBCHEM_HEAVY_ATOM_COUNT>
36

> <PUBCHEM_ATOM_DEF_STEREO_COUNT>
0

> <PUBCHEM_ATOM_UDEF_STEREO_COUNT>
0

> <PUBCHEM_BOND_DEF_STEREO_COUNT>
0

> <PUBCHEM_BOND_UDEF_STEREO_COUNT>
0

> <PUBCHEM_ISOTOPIC_ATOM_COUNT>
0

> <PUBCHEM_COMPONENT_COUNT>
1

> <PUBCHEM_CACTVS_TAUTO_COUNT>
18

> <PUBCHEM_CONFORMER_ID>
0455D73800000001

> <PUBCHEM_MMFF94_ENERGY>
118.4069

> <PUBCHEM_FEATURE_SELFOVERLAP>
71.167

> <PUBCHEM_SHAPE_FINGERPRINT>
10006869 2 18270396079711579623
11135926 11 18335973220745143564
11524674 6 17132117969711382509
11578080 2 17750782269846738421
12156800 1 16198709541957201620
12422481 6 17771041819028261779
12660671 118 18269556035796283174
12838862 33 18271512161603368645
13111901 25 18339637850546811418
140371 6 17260745149182828545
14114207 22 18334009463086958630
14659021 117 17409067537271802844
14739800 52 18410858728741309815
15274700 242 18264468707775097016
15297060 5 16343712058109388423
15322534 239 18339079410467182686
15351339 4 18410285952319316874
15406563 185 18059855134274810496
15927050 60 18339640148075207191
16628084 112 18262514789755351798
17627616 140 18336824208701756410
18681886 176 18272367620141194585
19311894 1 18055066824816647686
19319366 153 18335421292025801022
20642791 35 18341901753467787966
20721686 56 18341341032739263615
21360443 120 18333735727926281706
23559900 14 17844804987012587873
249057 3 18342742970210661572
3178227 256 18339940310902684953
3383291 50 18197776820084750171
3411729 13 18341335517953652959
4073 2 18124875918335948576
5265222 85 18193283107287764804
57676310 188 18408327662418106970
6669772 16 18260271832583452091

> <PUBCHEM_SHAPE_MULTIPOLES>
686.98
15.19
5.99
1.5
2.72
5.92
-0.39
-10.04
0.7
-6.89
2.8
-0.64
1.91
-3.11

> <PUBCHEM_SHAPE_SELFOVERLAP>
1502.962

> <PUBCHEM_SHAPE_VOLUME>
373.5

> <PUBCHEM_COORDINATE_TYPE>
2
5
10

$$$$
49803313
  -OEChem-11282412143D

 84 88  0     0  0  0  0  0  0999 V2000
    1.0391    0.6969   -0.9149 O   0  0  0  0  0  0  0  0  0  0  0  0
   -4.5441    5.0811    1.1703 O   0  0  0  0  0  0  0  0  0  0  0  0
   -3.8825   -4.3261    0.3009 O   0  0  0  0  0  0  0  0  0  0  0  0
    6.9679    0.2673   -0.0347 N   0  0  0  0  0  0  0  0  0  0  0  0
    2.9497   -1.0384    0.1916 N   0  0  0  0  0  0  0  0  0  0  0  0
    9.7982    0.7862   -0.3144 N   0  0  0  0  0  0  0  0  0  0  0  0
   -4.7952    1.8554   -0.5240 N   0  0  0  0  0  0  0  0  0  0  0  0
   -2.5224   -2.1652    0.5777 N   0  0  0  0  0  0  0  0  0  0  0  0
   -3.6381   -0.1443    0.0318 N   0  0  0  0  0  0  0  0  0  0  0  0
   -5.9256   -1.6224   -0.6381 N   0  0  0  0  0  0  0  0  0  0  0  0
   -6.0436   -4.2903   -0.4650 N   0  0  0  0  0  0  0  0  0  0  0  0
    5.7922   -0.5996   -0.0864 C   0  0  0  0  0  0  0  0  0  0  0  0
    5.1229   -0.6580    1.2880 C   0  0  0  0  0  0  0  0  0  0  0  0
    4.7975   -0.0725   -1.1229 C   0  0  0  0  0  0  0  0  0  0  0  0
    3.8499   -1.5050    1.2520 C   0  0  0  0  0  0  0  0  0  0  0  0
    3.5292   -0.9252   -1.1542 C   0  0  0  0  0  0  0  0  0  0  0  0
    7.9342   -0.2232    0.9555 C   0  0  0  0  0  0  0  0  0  0  0  0
    7.5969    0.3722   -1.3570 C   0  0  0  0  0  0  0  0  0  0  0  0
    9.1696    0.6822    1.0082 C   0  0  0  0  0  0  0  0  0  0  0  0
    8.8316    1.2786   -1.3034 C   0  0  0  0  0  0  0  0  0  0  0  0
    1.5794   -1.3107    0.2829 C   0  0  0  0  0  0  0  0  0  0  0  0
   10.9750    1.6514   -0.2632 C   0  0  0  0  0  0  0  0  0  0  0  0
    0.6434   -0.4378   -0.2718 C   0  0  0  0  0  0  0  0  0  0  0  0
    1.1532   -2.4676    0.9355 C   0  0  0  0  0  0  0  0  0  0  0  0
   -0.7188   -0.7217   -0.1738 C   0  0  0  0  0  0  0  0  0  0  0  0
   -0.2090   -2.7513    1.0339 C   0  0  0  0  0  0  0  0  0  0  0  0
   -1.1451   -1.8784    0.4791 C   0  0  0  0  0  0  0  0  0  0  0  0
   -3.6579    2.6935   -0.1989 C   0  0  0  0  0  0  0  0  0  0  0  0
   -3.5564    2.8664    1.3174 C   0  0  0  0  0  0  0  0  0  0  0  0
   -3.7830    4.0495   -0.8964 C   0  0  0  0  0  0  0  0  0  0  0  0
   -4.6117    3.8294    1.8516 C   0  0  0  0  0  0  0  0  0  0  0  0
   -4.8160    4.9490   -0.2238 C   0  0  0  0  0  0  0  0  0  0  0  0
   -4.7678    0.4476   -0.4044 C   0  0  0  0  0  0  0  0  0  0  0  0
   -3.6724   -1.4883    0.1271 C   0  0  0  0  0  0  0  0  0  0  0  0
    1.1740    1.8756   -0.1237 C   0  0  0  0  0  0  0  0  0  0  0  0
   -5.8913   -0.2784   -0.7335 C   0  0  0  0  0  0  0  0  0  0  0  0
   -4.7959   -2.2143   -0.2020 C   0  0  0  0  0  0  0  0  0  0  0  0
   -7.1406    0.3793   -1.2140 C   0  0  0  0  0  0  0  0  0  0  0  0
   -4.8539   -3.6647   -0.1049 C   0  0  0  0  0  0  0  0  0  0  0  0
   -7.9328    1.0215   -0.0781 C   0  0  0  0  0  0  0  0  0  0  0  0
    6.0880   -1.6189   -0.3747 H   0  0  0  0  0  0  0  0  0  0  0  0
    4.8726    0.3548    1.6315 H   0  0  0  0  0  0  0  0  0  0  0  0
    5.7630   -1.1158    2.0481 H   0  0  0  0  0  0  0  0  0  0  0  0
    5.1976   -0.1045   -2.1408 H   0  0  0  0  0  0  0  0  0  0  0  0
    4.5285    0.9689   -0.9015 H   0  0  0  0  0  0  0  0  0  0  0  0
    3.3687   -1.4272    2.2351 H   0  0  0  0  0  0  0  0  0  0  0  0
    4.1118   -2.5573    1.0841 H   0  0  0  0  0  0  0  0  0  0  0  0
    3.7711   -1.9326   -1.5181 H   0  0  0  0  0  0  0  0  0  0  0  0
    2.8418   -0.4937   -1.8880 H   0  0  0  0  0  0  0  0  0  0  0  0
    7.5264   -0.2008    1.9698 H   0  0  0  0  0  0  0  0  0  0  0  0
    8.2384   -1.2555    0.7365 H   0  0  0  0  0  0  0  0  0  0  0  0
    6.9363    0.8480   -2.0871 H   0  0  0  0  0  0  0  0  0  0  0  0
    7.8761   -0.6165   -1.7450 H   0  0  0  0  0  0  0  0  0  0  0  0
    9.8822    0.2533    1.7234 H   0  0  0  0  0  0  0  0  0  0  0  0
    8.8855    1.6743    1.3853 H   0  0  0  0  0  0  0  0  0  0  0  0
    8.5256    2.3082   -1.0724 H   0  0  0  0  0  0  0  0  0  0  0  0
    9.2944    1.2913   -2.2979 H   0  0  0  0  0  0  0  0  0  0  0  0
   10.7248    2.6752    0.0375 H   0  0  0  0  0  0  0  0  0  0  0  0
   11.7128    1.2552    0.4434 H   0  0  0  0  0  0  0  0  0  0  0  0
   11.4665    1.6899   -1.2417 H   0  0  0  0  0  0  0  0  0  0  0  0
    1.8525   -3.1794    1.3647 H   0  0  0  0  0  0  0  0  0  0  0  0
   -1.4036   -0.0285   -0.6468 H   0  0  0  0  0  0  0  0  0  0  0  0
   -0.5274   -3.6583    1.5416 H   0  0  0  0  0  0  0  0  0  0  0  0
   -2.7429    2.2178   -0.5737 H   0  0  0  0  0  0  0  0  0  0  0  0
   -3.6237    1.9110    1.8484 H   0  0  0  0  0  0  0  0  0  0  0  0
   -2.5674    3.2882    1.5398 H   0  0  0  0  0  0  0  0  0  0  0  0
   -2.8074    4.5495   -0.8400 H   0  0  0  0  0  0  0  0  0  0  0  0
   -4.0269    3.9270   -1.9579 H   0  0  0  0  0  0  0  0  0  0  0  0
   -5.6220    3.4147    1.7580 H   0  0  0  0  0  0  0  0  0  0  0  0
   -4.4332    4.0203    2.9146 H   0  0  0  0  0  0  0  0  0  0  0  0
   -4.7767    5.9498   -0.6660 H   0  0  0  0  0  0  0  0  0  0  0  0
   -5.8356    4.5718   -0.3628 H   0  0  0  0  0  0  0  0  0  0  0  0
   -5.6879    2.3109   -0.6576 H   0  0  0  0  0  0  0  0  0  0  0  0
   -2.7209   -3.0004    1.1202 H   0  0  0  0  0  0  0  0  0  0  0  0
    1.5177    2.6857   -0.7727 H   0  0  0  0  0  0  0  0  0  0  0  0
    1.9124    1.7275    0.6706 H   0  0  0  0  0  0  0  0  0  0  0  0
    0.2087    2.1588    0.3082 H   0  0  0  0  0  0  0  0  0  0  0  0
   -6.9175    1.1170   -1.9937 H   0  0  0  0  0  0  0  0  0  0  0  0
   -7.7793   -0.3710   -1.6977 H   0  0  0  0  0  0  0  0  0  0  0  0
   -8.2266    0.2684    0.6618 H   0  0  0  0  0  0  0  0  0  0  0  0
   -8.8467    1.4775   -0.4725 H   0  0  0  0  0  0  0  0  0  0  0  0
   -7.3739    1.7979    0.4508 H   0  0  0  0  0  0  0  0  0  0  0  0
   -6.1401   -5.2988   -0.4104 H   0  0  0  0  0  0  0  0  0  0  0  0
   -6.8503   -3.7678   -0.7917 H   0  0  0  0  0  0  0  0  0  0  0  0
  1 23  1  0  0  0  0
  1 35  1  0  0  0  0
  2 31  1  0  0  0  0
  2 32  1  0  0  0  0
  3 39  2  0  0  0  0
  4 12  1  0  0  0  0
  4 17  1  0  0  0  0
  4 18  1  0  0  0  0
  5 15  1  0  0  0  0
  5 16  1  0  0  0  0
  5 21  1  0  0  0  0
  6 19  1  0  0  0  0
  6 20  1  0  0  0  0
  6 22  1  0  0  0  0
  7 28  1  0  0  0  0
  7 33  1  0  0  0  0
  7 73  1  0  0  0  0
  8 27  1  0  0  0  0
  8 34  1  0  0  0  0
  8 74  1  0  0  0  0
  9 33  1  0  0  0  0
  9 34  2  0  0  0  0
 10 36  1  0  0  0  0
 10 37  2  0  0  0  0
 11 39  1  0  0  0  0
 11 83  1  0  0  0  0
 11 84  1  0  0  0  0
 12 13  1  0  0  0  0
 12 14  1  0  0  0  0
 12 41  1  0  0  0  0
 13 15  1  0  0  0  0
 13 42  1  0  0  0  0
 13 43  1  0  0  0  0
 14 16  1  0  0  0  0
 14 44  1  0  0  0  0
 14 45  1  0  0  0  0
 15 46  1  0  0  0  0
 15 47  1  0  0  0  0
 16 48  1  0  0  0  0
 16 49  1  0  0  0  0
 17 19  1  0  0  0  0
 17 50  1  0  0  0  0
 17 51  1  0  0  0  0
 18 20  1  0  0  0  0
 18 52  1  0  0  0  0
 18 53  1  0  0  0  0
 19 54  1  0  0  0  0
 19 55  1  0  0  0  0
 20 56  1  0  0  0  0
 20 57  1  0  0  0  0
 21 23  2  0  0  0  0
 21 24  1  0  0  0  0
 22 58  1  0  0  0  0
 22 59  1  0  0  0  0
 22 60  1  0  0  0  0
 23 25  1  0  0  0  0
 24 26  2  0  0  0  0
 24 61  1  0  0  0  0
 25 27  2  0  0  0  0
 25 62  1  0  0  0  0
 26 27  1  0  0  0  0
 26 63  1  0  0  0  0
 28 29  1  0  0  0  0
 28 30  1  0  0  0  0
 28 64  1  0  0  0  0
 29 31  1  0  0  0  0
 29 65  1  0  0  0  0
 29 66  1  0  0  0  0
 30 32  1  0  0  0  0
 30 67  1  0  0  0  0
 30 68  1  0  0  0  0
 31 69  1  0  0  0  0
 31 70  1  0  0  0  0
 32 71  1  0  0  0  0
 32 72  1  0  0  0  0
 33 36  2  0  0  0  0
 34 37  1  0  0  0  0
 35 75  1  0  0  0  0
 35 76  1  0  0  0  0
 35 77  1  0  0  0  0
 36 38  1  0  0  0  0
 37 39  1  0  0  0  0
 38 40  1  0  0  0  0
 38 78  1  0  0  0  0
 38 79  1  0  0  0  0
 40 80  1  0  0  0  0
 40 81  1  0  0  0  0
 40 82  1  0  0  0  0
M  END
> <PUBCHEM_COMPOUND_CID>
49803313

> <PUBCHEM_CONFORMER_RMSD>
1.2

> <PUBCHEM_CONFORMER_DIVERSEORDER>
1
5
43
50
13
34
53
10
41
42
31
12
57
11
54
40
25
30
27
7
15
32
55
46
44
17
36
58
16
49
52
9
38
19
20
21
45
29
6
51
47
48
18
35
39
56
28
3
23
24
37
22
26
2
14
33
4
8

> <PUBCHEM_MMFF94_PARTIAL_CHARGES>
42
1 -0.36
10 -0.62
11 -0.8
12 0.27
15 0.37
16 0.37
17 0.27
18 0.27
19 0.27
2 -0.56
20 0.27
21 0.1
22 0.27
23 0.08
24 -0.15
25 -0.15
26 -0.15
27 0.1
28 0.37
3 -0.57
31 0.28
32 0.28
33 0.41
34 0.41
35 0.28
36 0.17
37 0.4
38 0.14
39 0.54
4 -0.81
5 -0.84
6 -0.81
61 0.15
62 0.15
63 0.15
7 -0.87
73 0.4
74 0.4
8 -0.6
83 0.37
84 0.37
9 -0.62

> <PUBCHEM_EFFECTIVE_ROTOR_COUNT>
12.6

> <PUBCHEM_PHARMACOPHORE_FEATURES>
18
1 1 acceptor
1 10 acceptor
1 11 donor
1 2 acceptor
1 3 acceptor
1 4 cation
1 40 hydrophobe
1 5 cation
1 6 cation
1 7 cation
1 7 donor
1 8 donor
3 8 9 34 cation
6 2 28 29 30 31 32 rings
6 21 23 24 25 26 27 rings
6 4 6 17 18 19 20 rings
6 5 12 13 14 15 16 rings
6 9 10 33 34 36 37 rings

> <PUBCHEM_HEAVY_ATOM_COUNT>
40

> <PUBCHEM_ATOM_DEF_STEREO_COUNT>
0

> <PUBCHEM_ATOM_UDEF_STEREO_COUNT>
0

> <PUBCHEM_BOND_DEF_STEREO_COUNT>
0

> <PUBCHEM_BOND_UDEF_STEREO_COUNT>
0

> <PUBCHEM_ISOTOPIC_ATOM_COUNT>
0

> <PUBCHEM_COMPONENT_COUNT>
1

> <PUBCHEM_CACTVS_TAUTO_COUNT>
36

> <PUBCHEM_CONFORMER_ID>
02F7F03100000001

> <PUBCHEM_MMFF94_ENERGY>
146.3315

> <PUBCHEM_FEATURE_SELFOVERLAP>
91.352

> <PUBCHEM_SHAPE_FINGERPRINT>
10050765 1 18337953364611144866
100830 39 18409728469310188500
11434127 23 17917430865711430117
11477941 20 18270954743751700981
12082328 90 18342458149554219302
12133447 93 18410584960075203644
12758862 11 18200872984783168746
12788726 201 18269826538059537811
13383665 225 18188506713882532750
13726171 33 18056766429881897017
14068700 675 18263078967821578319
14294032 229 18114460068607854084
14512766 119 18340491049995071140
14856354 85 18411419540117477031
15289351 153 18410004413529714586
15328684 2 18041826343314167472
15419008 47 17988358273580952107
15461852 350 18338800130240405046
15604295 49 18271521022822624656
16126227 98 18197784302455973897
16728433 281 18343027649375081880
16989713 51 17915734490979644303
17686467 74 18339636858055756072
18603816 31 12829498073446329689
19309040 13 17485642659801535645
24771293 8 18334581214199198156
249057 25 17967823777462154428
3711267 37 17822023047258020684
4403749 210 18263365781512027705
44802255 64 17775281672987525919
5937810 71 18130514046037323544
6058803 2 18117540848402050363
6201320 215 18412822486604846338
636775 72 18409730686452914232
6673363 416 18339926042757134742
6691757 9 16805331011424838146

> <PUBCHEM_SHAPE_MULTIPOLES>
765.73
29.24
5.45
1.26
70.49
3.38
0.18
13.15
-4.48
-15.76
1.25
0.6
0.53
-2.31

> <PUBCHEM_SHAPE_SELFOVERLAP>
1617.64

> <PUBCHEM_SHAPE_VOLUME>
425.7

> <PUBCHEM_COORDINATE_TYPE>
2
5
10

$$$$
129073603
  -OEChem-11282412143D

 71 75  0     1  0  0  0  0  0999 V2000
   -6.7979   -1.1389   -0.6552 F   0  0  0  0  0  0  0  0  0  0  0  0
    4.2801    3.3446   -0.1329 O   0  0  0  0  0  0  0  0  0  0  0  0
    2.0000    1.9406    1.7833 O   0  0  0  0  0  0  0  0  0  0  0  0
    1.6192    3.5039    0.1009 N   0  0  0  0  0  0  0  0  0  0  0  0
    3.6601   -3.1427   -1.2631 N   0  0  0  0  0  0  0  0  0  0  0  0
    1.7403   -2.3420   -0.0463 N   0  0  0  0  0  0  0  0  0  0  0  0
   -0.0021   -3.8533    0.5453 N   0  0  0  0  0  0  0  0  0  0  0  0
   -2.6666    1.7713    0.6831 N   0  0  0  0  0  0  0  0  0  0  0  0
   -4.0394    0.9529   -1.0330 N   0  0  0  0  0  0  0  0  0  0  0  0
   -0.7646   -1.7167    1.4463 N   0  0  0  0  0  0  0  0  0  0  0  0
   -1.8812   -1.3951    2.1216 N   0  0  0  0  0  0  0  0  0  0  0  0
   -4.3693    0.8588   -2.3324 N   0  0  0  0  0  0  0  0  0  0  0  0
    3.5702    2.1143   -0.0109 C   0  0  0  0  0  0  0  0  0  0  0  0
    3.5195   -0.7876   -0.6482 C   0  0  0  0  0  0  0  0  0  0  0  0
    3.2349    1.6110   -1.4156 C   0  0  0  0  0  0  0  0  0  0  0  0
    4.4139    1.1089    0.7760 C   0  0  0  0  0  0  0  0  0  0  0  0
    2.6278    0.2081   -1.4088 C   0  0  0  0  0  0  0  0  0  0  0  0
    3.8054   -0.2933    0.7798 C   0  0  0  0  0  0  0  0  0  0  0  0
    2.3251    2.4978    0.7382 C   0  0  0  0  0  0  0  0  0  0  0  0
    2.9326   -2.1877   -0.6529 C   0  0  0  0  0  0  0  0  0  0  0  0
    0.3743    4.0375    0.6046 C   0  0  2  0  0  0  0  0  0  0  0  0
    4.5864    3.8940    1.1399 C   0  0  0  0  0  0  0  0  0  0  0  0
    3.1092   -4.3742   -1.2488 C   0  0  0  0  0  0  0  0  0  0  0  0
    1.2482   -3.5980   -0.0693 C   0  0  0  0  0  0  0  0  0  0  0  0
   -0.8067    3.2154    0.1352 C   0  0  0  0  0  0  0  0  0  0  0  0
    0.2371    5.5153    0.2444 C   0  0  0  0  0  0  0  0  0  0  0  0
    1.8945   -4.6639   -0.6616 C   0  0  0  0  0  0  0  0  0  0  0  0
    3.8825   -5.4627   -1.9145 C   0  0  0  0  0  0  0  0  0  0  0  0
   -1.1303    3.1325   -1.2146 C   0  0  0  0  0  0  0  0  0  0  0  0
   -1.5992    2.5223    1.0359 C   0  0  0  0  0  0  0  0  0  0  0  0
   -2.2213    2.3698   -1.6165 C   0  0  0  0  0  0  0  0  0  0  0  0
   -0.9108   -3.0258    1.2248 C   0  0  0  0  0  0  0  0  0  0  0  0
   -2.9506    1.7145   -0.6375 C   0  0  0  0  0  0  0  0  0  0  0  0
   -2.1111   -3.5360    1.7545 C   0  0  0  0  0  0  0  0  0  0  0  0
   -2.7209   -2.4492    2.3323 C   0  0  0  0  0  0  0  0  0  0  0  0
   -4.8602    0.2469   -0.2034 C   0  0  0  0  0  0  0  0  0  0  0  0
   -3.9961   -2.3046    3.0526 C   0  0  0  0  0  0  0  0  0  0  0  0
   -5.7921   -0.3504   -1.0168 C   0  0  0  0  0  0  0  0  0  0  0  0
   -5.4407    0.0614   -2.3162 C   0  0  0  0  0  0  0  0  0  0  0  0
    4.4822   -0.8361   -1.1773 H   0  0  0  0  0  0  0  0  0  0  0  0
    4.1579    1.5934   -2.0119 H   0  0  0  0  0  0  0  0  0  0  0  0
    2.5684    2.2887   -1.9606 H   0  0  0  0  0  0  0  0  0  0  0  0
    4.5482    1.4046    1.8234 H   0  0  0  0  0  0  0  0  0  0  0  0
    5.4236    1.0648    0.3462 H   0  0  0  0  0  0  0  0  0  0  0  0
    2.4889   -0.1305   -2.4432 H   0  0  0  0  0  0  0  0  0  0  0  0
    1.6270    0.2472   -0.9595 H   0  0  0  0  0  0  0  0  0  0  0  0
    2.8895   -0.3152    1.3812 H   0  0  0  0  0  0  0  0  0  0  0  0
    4.5032   -0.9818    1.2738 H   0  0  0  0  0  0  0  0  0  0  0  0
    1.9799    3.8950   -0.7640 H   0  0  0  0  0  0  0  0  0  0  0  0
    0.4222    3.9788    1.7000 H   0  0  0  0  0  0  0  0  0  0  0  0
    3.7427    4.0051    1.8253 H   0  0  0  0  0  0  0  0  0  0  0  0
    5.4067    3.3531    1.6208 H   0  0  0  0  0  0  0  0  0  0  0  0
    4.9646    4.9063    0.9592 H   0  0  0  0  0  0  0  0  0  0  0  0
    0.2491    5.6774   -0.8393 H   0  0  0  0  0  0  0  0  0  0  0  0
   -0.6972    5.9317    0.6366 H   0  0  0  0  0  0  0  0  0  0  0  0
    1.0687    6.0915    0.6655 H   0  0  0  0  0  0  0  0  0  0  0  0
    1.4828   -5.6663   -0.6697 H   0  0  0  0  0  0  0  0  0  0  0  0
    4.8201   -5.0807   -2.3316 H   0  0  0  0  0  0  0  0  0  0  0  0
    4.1293   -6.2496   -1.1947 H   0  0  0  0  0  0  0  0  0  0  0  0
    3.3009   -5.8967   -2.7340 H   0  0  0  0  0  0  0  0  0  0  0  0
   -0.2669   -4.8340    0.4627 H   0  0  0  0  0  0  0  0  0  0  0  0
   -0.5399    3.6502   -1.9654 H   0  0  0  0  0  0  0  0  0  0  0  0
   -1.3986    2.5447    2.1024 H   0  0  0  0  0  0  0  0  0  0  0  0
   -2.4495    2.3219   -2.6761 H   0  0  0  0  0  0  0  0  0  0  0  0
   -2.4867   -4.5491    1.7244 H   0  0  0  0  0  0  0  0  0  0  0  0
   -2.0061   -0.4318    2.4076 H   0  0  0  0  0  0  0  0  0  0  0  0
   -4.7352    0.2173    0.8706 H   0  0  0  0  0  0  0  0  0  0  0  0
   -3.8574   -2.5115    4.1185 H   0  0  0  0  0  0  0  0  0  0  0  0
   -4.4030   -1.2933    2.9521 H   0  0  0  0  0  0  0  0  0  0  0  0
   -4.7436   -3.0042    2.6646 H   0  0  0  0  0  0  0  0  0  0  0  0
   -5.9208   -0.1864   -3.2519 H   0  0  0  0  0  0  0  0  0  0  0  0
  1 38  1  0  0  0  0
  2 13  1  0  0  0  0
  2 22  1  0  0  0  0
  3 19  2  0  0  0  0
  4 19  1  0  0  0  0
  4 21  1  0  0  0  0
  4 49  1  0  0  0  0
  5 20  2  0  0  0  0
  5 23  1  0  0  0  0
  6 20  1  0  0  0  0
  6 24  2  0  0  0  0
  7 24  1  0  0  0  0
  7 32  1  0  0  0  0
  7 61  1  0  0  0  0
  8 30  1  0  0  0  0
  8 33  2  0  0  0  0
  9 12  1  0  0  0  0
  9 33  1  0  0  0  0
  9 36  1  0  0  0  0
 10 11  1  0  0  0  0
 10 32  2  0  0  0  0
 11 35  1  0  0  0  0
 11 66  1  0  0  0  0
 12 39  2  0  0  0  0
 13 15  1  0  0  0  0
 13 16  1  0  0  0  0
 13 19  1  0  0  0  0
 14 17  1  0  0  0  0
 14 18  1  0  0  0  0
 14 20  1  0  0  0  0
 14 40  1  0  0  0  0
 15 17  1  0  0  0  0
 15 41  1  0  0  0  0
 15 42  1  0  0  0  0
 16 18  1  0  0  0  0
 16 43  1  0  0  0  0
 16 44  1  0  0  0  0
 17 45  1  0  0  0  0
 17 46  1  0  0  0  0
 18 47  1  0  0  0  0
 18 48  1  0  0  0  0
 21 25  1  0  0  0  0
 21 26  1  0  0  0  0
 21 50  1  0  0  0  0
 22 51  1  0  0  0  0
 22 52  1  0  0  0  0
 22 53  1  0  0  0  0
 23 27  2  0  0  0  0
 23 28  1  0  0  0  0
 24 27  1  0  0  0  0
 25 29  1  0  0  0  0
 25 30  2  0  0  0  0
 26 54  1  0  0  0  0
 26 55  1  0  0  0  0
 26 56  1  0  0  0  0
 27 57  1  0  0  0  0
 28 58  1  0  0  0  0
 28 59  1  0  0  0  0
 28 60  1  0  0  0  0
 29 31  2  0  0  0  0
 29 62  1  0  0  0  0
 30 63  1  0  0  0  0
 31 33  1  0  0  0  0
 31 64  1  0  0  0  0
 32 34  1  0  0  0  0
 34 35  2  0  0  0  0
 34 65  1  0  0  0  0
 35 37  1  0  0  0  0
 36 38  2  0  0  0  0
 36 67  1  0  0  0  0
 37 68  1  0  0  0  0
 37 69  1  0  0  0  0
 37 70  1  0  0  0  0
 38 39  1  0  0  0  0
 39 71  1  0  0  0  0
M  END
> <PUBCHEM_COMPOUND_CID>
129073603

> <PUBCHEM_CONFORMER_RMSD>
1.2

> <PUBCHEM_CONFORMER_DIVERSEORDER>
1
172
25
44
39
168
165
134
153
69
147
104
173
63
164
129
137
61
139
119
70
105
142
160
33
68
116
170
161
95
115
151
145
130
62
128
32
38
155
90
91
97
96
71
141
100
124
157
169
159
109
83
73
121
112
174
114
107
52
133
13
138
148
94
154
106
34
122
36
117
58
108
12
175
126
92
163
67
27
9
110
78
93
149
43
77
16
135
20
152
150
17
101
166
143
51
42
46
136
111
162
82
158
66
171
120
87
156
176
85
113
59
49
72
167
8
131
86
64
55
88
45
31
50
123
102
79
56
53
99
4
48
30
65
146
6
76
24
84
57
7
118
144
80
47
19
15
132
5
18
41
127
37
11
28
98
22
40
23
14
103
74
2
75
81
26
54
125
140
21
10
3
60
35
89
29

> <PUBCHEM_MMFF94_PARTIAL_CHARGES>
44
1 -0.14
10 -0.71
11 0.3
12 -0.71
13 0.34
14 0.14
19 0.57
2 -0.56
20 0.48
21 0.44
22 0.28
23 0.17
24 0.41
25 -0.14
27 -0.15
28 0.14
29 -0.15
3 -0.57
30 0.16
31 -0.15
32 0.37
33 0.29
34 -0.15
35 -0.33
36 -0.3
37 0.18
38 0.14
39 0.14
4 -0.73
49 0.37
5 -0.62
57 0.15
6 -0.62
61 0.4
62 0.15
63 0.15
64 0.15
65 0.15
66 0.27
67 0.15
7 -0.58
71 0.15
8 -0.62
9 0.59

> <PUBCHEM_EFFECTIVE_ROTOR_COUNT>
10.2

> <PUBCHEM_PHARMACOPHORE_FEATURES>
15
1 11 donor
1 12 acceptor
1 2 acceptor
1 3 acceptor
1 4 donor
1 7 donor
3 5 6 20 cation
3 6 7 24 cation
3 7 10 32 cation
3 8 9 33 cation
5 10 11 32 34 35 rings
5 9 12 36 38 39 rings
6 13 14 15 16 17 18 rings
6 5 6 20 23 24 27 rings
6 8 25 29 30 31 33 rings

> <PUBCHEM_HEAVY_ATOM_COUNT>
39

> <PUBCHEM_ATOM_DEF_STEREO_COUNT>
1

> <PUBCHEM_ATOM_UDEF_STEREO_COUNT>
0

> <PUBCHEM_BOND_DEF_STEREO_COUNT>
0

> <PUBCHEM_BOND_UDEF_STEREO_COUNT>
0

> <PUBCHEM_ISOTOPIC_ATOM_COUNT>
0

> <PUBCHEM_COMPONENT_COUNT>
1

> <PUBCHEM_CACTVS_TAUTO_COUNT>
276

> <PUBCHEM_CONFORMER_ID>
07B181C300000001

> <PUBCHEM_MMFF94_ENERGY>
93.8547

> <PUBCHEM_FEATURE_SELFOVERLAP>
76.584

> <PUBCHEM_SHAPE_FINGERPRINT>
10049733 57 18116440435094145691
10653451 467 18045223988900052331
11227688 84 18055372249221746692
11285246 1 17907019478280691483
11763389 116 18267312113189572758
12202916 173 18191557874716624104
13402501 40 18263074565010880345
1361 2 18269826674633360741
14017579 153 18050574238440407432
14415360 78 17555455385385511233
15264996 163 17615419056113877149
15484559 13 17755818127301400405
15781502 589 18263915704354692322
15968369 26 18264744654391023421
161222 619 18267589189655464383
16993438 75 17759508263858465892
19311894 1 17332524571216224127
19319366 153 18129646634473846116
20764821 26 18267017456388388533
20775438 99 18267846415764605215
20775530 9 17832426397543846596
354706 35 18334011726629955236
437795 96 17974853083863065555
44344687 77 18409725129133940175
463206 1 17546449981717041384
6422251 121 18338227151542882109
66674814 147 17754460058452422846
86090 222 18339073904028906797

> <PUBCHEM_SHAPE_MULTIPOLES>
738.76
10.92
8.52
2.25
10.53
1.78
0.49
2.4
-4.22
-8.39
0.33
2.38
1.58
5

> <PUBCHEM_SHAPE_SELFOVERLAP>
1601.234

> <PUBCHEM_SHAPE_VOLUME>
406.1

> <PUBCHEM_COORDINATE_TYPE>
2
5
10

$$$$
25151352
  -OEChem-11282412143D

 44 47  0     0  0  0  0  0  0999 V2000
    6.1692    3.5695   -1.5197 Cl  0  0  0  0  0  0  0  0  0  0  0  0
   -8.6572   -0.4321    0.1717 F   0  0  0  0  0  0  0  0  0  0  0  0
   -7.9886    0.5076    2.0085 F   0  0  0  0  0  0  0  0  0  0  0  0
   -8.4136    1.7269    0.2588 F   0  0  0  0  0  0  0  0  0  0  0  0
    5.8577   -1.0231    1.9592 N   0  0  0  0  0  0  0  0  0  0  0  0
   -1.6926   -0.8424   -0.2794 N   0  0  0  0  0  0  0  0  0  0  0  0
    6.7538    1.1900    1.6385 N   0  0  0  0  0  0  0  0  0  0  0  0
    0.2599   -2.0835    0.2916 N   0  0  0  0  0  0  0  0  0  0  0  0
   -5.5624    1.3703    0.6409 N   0  0  0  0  0  0  0  0  0  0  0  0
    4.6980   -1.2794    0.0776 C   0  0  0  0  0  0  0  0  0  0  0  0
    3.8382   -1.8648   -0.9706 C   0  0  0  0  0  0  0  0  0  0  0  0
    5.3067    0.0032    0.0539 C   0  0  0  0  0  0  0  0  0  0  0  0
    2.3544   -1.5736   -0.8030 C   0  0  0  0  0  0  0  0  0  0  0  0
    6.0221    0.1319    1.2408 C   0  0  0  0  0  0  0  0  0  0  0  0
    5.0547   -1.8879    1.2617 C   0  0  0  0  0  0  0  0  0  0  0  0
    5.3391    1.0852   -0.8406 C   0  0  0  0  0  0  0  0  0  0  0  0
    1.7323   -0.5752   -1.5445 C   0  0  0  0  0  0  0  0  0  0  0  0
    1.5808   -2.2927    0.0938 C   0  0  0  0  0  0  0  0  0  0  0  0
   -0.3101   -1.1050   -0.4470 C   0  0  0  0  0  0  0  0  0  0  0  0
   -2.3785    0.1700   -1.0141 C   0  0  0  0  0  0  0  0  0  0  0  0
    0.3749   -0.3302   -1.3691 C   0  0  0  0  0  0  0  0  0  0  0  0
   -3.8215    0.2379   -0.5968 C   0  0  0  0  0  0  0  0  0  0  0  0
    6.0824    2.2071   -0.4783 C   0  0  0  0  0  0  0  0  0  0  0  0
    6.7495    2.2014    0.7393 C   0  0  0  0  0  0  0  0  0  0  0  0
   -4.7378   -0.7147   -1.0286 C   0  0  0  0  0  0  0  0  0  0  0  0
   -4.2801    1.2513    0.2293 C   0  0  0  0  0  0  0  0  0  0  0  0
   -6.0659   -0.6260   -0.6265 C   0  0  0  0  0  0  0  0  0  0  0  0
   -6.4241    0.4261    0.2011 C   0  0  0  0  0  0  0  0  0  0  0  0
   -7.8414    0.5522    0.6517 C   0  0  0  0  0  0  0  0  0  0  0  0
    3.9718   -2.9550   -0.9995 H   0  0  0  0  0  0  0  0  0  0  0  0
    4.1634   -1.5191   -1.9608 H   0  0  0  0  0  0  0  0  0  0  0  0
    4.8103   -2.8581    1.6717 H   0  0  0  0  0  0  0  0  0  0  0  0
    6.2662   -1.2082    2.8647 H   0  0  0  0  0  0  0  0  0  0  0  0
    4.8019    1.0453   -1.7833 H   0  0  0  0  0  0  0  0  0  0  0  0
    2.2944    0.0175   -2.2608 H   0  0  0  0  0  0  0  0  0  0  0  0
    2.0083   -3.0854    0.6999 H   0  0  0  0  0  0  0  0  0  0  0  0
   -2.3462   -0.0297   -2.0930 H   0  0  0  0  0  0  0  0  0  0  0  0
   -1.9207    1.1539   -0.8500 H   0  0  0  0  0  0  0  0  0  0  0  0
   -0.0776    0.4536   -1.9649 H   0  0  0  0  0  0  0  0  0  0  0  0
   -2.1783   -1.4174    0.3998 H   0  0  0  0  0  0  0  0  0  0  0  0
    7.3375    3.0623    1.0497 H   0  0  0  0  0  0  0  0  0  0  0  0
   -4.4277   -1.5290   -1.6777 H   0  0  0  0  0  0  0  0  0  0  0  0
   -3.6142    2.0236    0.6016 H   0  0  0  0  0  0  0  0  0  0  0  0
   -6.7823   -1.3679   -0.9621 H   0  0  0  0  0  0  0  0  0  0  0  0
  1 23  1  0  0  0  0
  2 29  1  0  0  0  0
  3 29  1  0  0  0  0
  4 29  1  0  0  0  0
  5 14  1  0  0  0  0
  5 15  1  0  0  0  0
  5 33  1  0  0  0  0
  6 19  1  0  0  0  0
  6 20  1  0  0  0  0
  6 40  1  0  0  0  0
  7 14  1  0  0  0  0
  7 24  2  0  0  0  0
  8 18  1  0  0  0  0
  8 19  2  0  0  0  0
  9 26  1  0  0  0  0
  9 28  2  0  0  0  0
 10 11  1  0  0  0  0
 10 12  1  0  0  0  0
 10 15  2  0  0  0  0
 11 13  1  0  0  0  0
 11 30  1  0  0  0  0
 11 31  1  0  0  0  0
 12 14  2  0  0  0  0
 12 16  1  0  0  0  0
 13 17  1  0  0  0  0
 13 18  2  0  0  0  0
 15 32  1  0  0  0  0
 16 23  2  0  0  0  0
 16 34  1  0  0  0  0
 17 21  2  0  0  0  0
 17 35  1  0  0  0  0
 18 36  1  0  0  0  0
 19 21  1  0  0  0  0
 20 22  1  0  0  0  0
 20 37  1  0  0  0  0
 20 38  1  0  0  0  0
 21 39  1  0  0  0  0
 22 25  1  0  0  0  0
 22 26  2  0  0  0  0
 23 24  1  0  0  0  0
 24 41  1  0  0  0  0
 25 27  2  0  0  0  0
 25 42  1  0  0  0  0
 26 43  1  0  0  0  0
 27 28  1  0  0  0  0
 27 44  1  0  0  0  0
 28 29  1  0  0  0  0
M  END
> <PUBCHEM_COMPOUND_CID>
25151352

> <PUBCHEM_CONFORMER_RMSD>
1

> <PUBCHEM_CONFORMER_DIVERSEORDER>
1
146
4
113
103
104
225
79
200
116
240
232
170
128
189
36
246
238
84
78
123
26
157
152
39
154
99
216
112
101
186
28
138
166
82
229
160
133
215
31
256
241
248
253
20
180
80
46
145
182
227
140
139
218
121
141
53
217
199
88
10
35
190
196
124
105
167
93
231
237
135
118
185
208
98
177
243
155
11
250
76
58
201
181
173
230
95
249
150
235
251
75
198
242
163
62
221
247
226
42
197
228
57
122
210
174
27
86
151
147
89
136
142
66
24
33
202
85
6
25
244
206
179
223
119
64
91
61
137
192
59
107
156
23
224
211
45
67
90
74
110
129
49
92
41
77
188
176
102
178
255
22
233
44
120
30
144
94
175
149
43
127
7
184
171
161
50
213
236
168
115
203
51
126
158
106
193
169
55
132
97
52
68
165
239
63
204
148
54
194
212
38
195
117
37
60
15
245
81
19
214
143
111
220
34
108
29
219
73
71
83
252
254
114
14
164
222
109
12
56
205
162
207
16
13
153
40
17
131
65
183
134
125
9
2
191
87
32
187
130
21
47
234
70
72
48
172
3
8
96
69
100
5
159
209
18

> <PUBCHEM_MMFF94_PARTIAL_CHARGES>
39
1 -0.18
10 -0.18
11 0.32
13 -0.14
14 0.11
15 -0.3
16 -0.15
17 -0.15
18 0.16
19 0.41
2 -0.34
20 0.51
21 -0.15
22 -0.14
23 0.18
24 0.16
25 -0.15
26 0.16
27 -0.15
28 0.17
29 1.16
3 -0.34
32 0.15
33 0.27
34 0.15
35 0.15
36 0.15
39 0.15
4 -0.34
40 0.4
41 0.15
42 0.15
43 0.15
44 0.15
5 0.03
6 -0.87
7 -0.57
8 -0.62
9 -0.62

> <PUBCHEM_EFFECTIVE_ROTOR_COUNT>
6

> <PUBCHEM_PHARMACOPHORE_FEATURES>
10
1 5 cation
1 5 donor
1 6 donor
1 7 acceptor
1 9 acceptor
3 6 8 19 cation
5 5 10 12 14 15 rings
6 7 12 14 16 23 24 rings
6 8 13 17 18 19 21 rings
6 9 22 25 26 27 28 rings

> <PUBCHEM_HEAVY_ATOM_COUNT>
29

> <PUBCHEM_ATOM_DEF_STEREO_COUNT>
0

> <PUBCHEM_ATOM_UDEF_STEREO_COUNT>
0

> <PUBCHEM_BOND_DEF_STEREO_COUNT>
0

> <PUBCHEM_BOND_UDEF_STEREO_COUNT>
0

> <PUBCHEM_ISOTOPIC_ATOM_COUNT>
0

> <PUBCHEM_COMPONENT_COUNT>
1

> <PUBCHEM_CACTVS_TAUTO_COUNT>
4

> <PUBCHEM_CONFORMER_ID>
017FC77800000001

> <PUBCHEM_MMFF94_ENERGY>
69.4483

> <PUBCHEM_FEATURE_SELFOVERLAP>
50.859

> <PUBCHEM_SHAPE_FINGERPRINT>
10 15 18040719173010439991
10066227 49 7997972375603714137
10533779 47 18115018599055999466
10693767 8 10231759963906286372
11135609 127 11023237950838188186
11408170 132 13038919780882124987
11578821 258 18273213076470437825
11719270 70 14273454760415543427
125118 31 18272371923813949633
12539765 74 17846787286502811487
12592606 108 11314303936642223888
13533116 47 17749666286766719738
13782708 43 12612757925704324551
13914758 101 11314307235783905271
14068700 675 11602814692375034726
14216079 64 8358261436271409033
14251757 52 17346880052477987405
14251764 18 17918272048536878079
14251764 75 18044659943893734876
14400156 188 17823691959733079538
14537116 161 16487538052841131240
14565420 104 18334574620823122378
14849402 71 18339644550648690209
14919807 6 12247136160663707395
15183329 4 8070026692211862415
15188451 53 13984658140265776654
15352257 5 8358259250249230129
15419008 91 16950831558144375197
15461852 350 14836111154051612909
15475509 35 12973879339020020972
155225 6 18191310592682237772
15554971 5 17632570510358742695
1577012 14 18273209815871601191
15840311 113 18411984637158459390
16994733 274 18060420192756331627
1754908 1 17603594028217494849
18393751 57 18259703406541563455
2026 5 11819261244267995257
20567600 234 18334574646565772654
21130935 74 18333733490328364603
21344244 78 15213017163872662510
21360442 33 11240008832690585204
21521239 73 10015864288623488100
21521721 280 18409732863304845203
21641784 216 15554455067512631730
21792934 111 17385721366709441341
21987483 16 17749389316741178675
22224240 67 18259703389715122203
23523766 6 15336336042764736420
23576562 1 14404315388191941457
24771293 8 18337386145042916020
25269216 80 15768916017264268989
3383291 50 14996286916383956337
3418910 222 17704081698900114305
34797466 226 17846786178211032902
3711267 37 17346323704306467889
397830 11 17895202150432521778
4073 2 18343865532917385415
4093350 32 17632584833678646798
444735 82 18411422782622710365
5104073 3 17678732337487101095
5109719 28 18410022043336625985
5372103 7 15553303995856950280
5758199 1 18413389839173961559
5951187 136 17560235964266764256
59682541 35 18260833717996608099
60111433 81 17415828340125856904
6438161 24 8862947156573144068
68570916 9 18341323483075981775
9689198 14 16271927129653001837

> <PUBCHEM_SHAPE_MULTIPOLES>
551.95
27.09
2.65
1.5
41.1
1.3
-0.29
15.36
-10.15
-5.89
0.41
-1.27
0.11
-2.1

> <PUBCHEM_SHAPE_SELFOVERLAP>
1209.403

> <PUBCHEM_SHAPE_VOLUME>
302.8

> <PUBCHEM_COORDINATE_TYPE>
2
5
10

$$$$
11667893
  -OEChem-11282412143D

 51 54  0     0  0  0  0  0  0999 V2000
    0.3715   -1.5474    1.7794 O   0  0  0  0  0  0  0  0  0  0  0  0
   -4.1338    0.3097    1.8531 N   0  0  0  0  0  0  0  0  0  0  0  0
   -0.2727   -1.5874   -0.4814 N   0  0  0  0  0  0  0  0  0  0  0  0
    2.8083   -0.1122   -0.0180 N   0  0  0  0  0  0  0  0  0  0  0  0
    4.2161   -1.9863   -0.3726 N   0  0  0  0  0  0  0  0  0  0  0  0
    2.5993    4.8803    0.1189 N   0  0  0  0  0  0  0  0  0  0  0  0
   -5.4705    0.6074   -0.1538 C   0  0  0  0  0  0  0  0  0  0  0  0
   -5.5037    0.5335    1.4054 C   0  0  0  0  0  0  0  0  0  0  0  0
   -4.1327   -0.0298   -0.4395 C   0  0  0  0  0  0  0  0  0  0  0  0
   -3.4258   -0.1792    0.7580 C   0  0  0  0  0  0  0  0  0  0  0  0
   -6.6367   -0.1704   -0.7679 C   0  0  0  0  0  0  0  0  0  0  0  0
   -5.4840    2.0640   -0.6341 C   0  0  0  0  0  0  0  0  0  0  0  0
   -3.5790   -0.4108   -1.6524 C   0  0  0  0  0  0  0  0  0  0  0  0
   -2.1337   -0.6769    0.7598 C   0  0  0  0  0  0  0  0  0  0  0  0
   -1.5683   -1.0693   -0.4559 C   0  0  0  0  0  0  0  0  0  0  0  0
   -2.2875   -0.9404   -1.6535 C   0  0  0  0  0  0  0  0  0  0  0  0
    0.5959   -1.7911    0.5986 C   0  0  0  0  0  0  0  0  0  0  0  0
    1.9330   -2.3370    0.2466 C   0  0  0  0  0  0  0  0  0  0  0  0
    2.9900   -1.5179   -0.0489 C   0  0  0  0  0  0  0  0  0  0  0  0
    2.0924   -3.7034    0.2224 C   0  0  0  0  0  0  0  0  0  0  0  0
    3.8590    0.8061   -0.3131 C   0  0  0  0  0  0  0  0  0  0  0  0
    3.4170    2.2330   -0.1617 C   0  0  0  0  0  0  0  0  0  0  0  0
    3.3395   -4.2233   -0.1061 C   0  0  0  0  0  0  0  0  0  0  0  0
    4.3593   -3.3304   -0.3928 C   0  0  0  0  0  0  0  0  0  0  0  0
    3.5537    2.8691    1.0614 C   0  0  0  0  0  0  0  0  0  0  0  0
    2.8765    2.9043   -1.2462 C   0  0  0  0  0  0  0  0  0  0  0  0
    3.1322    4.1860    1.1493 C   0  0  0  0  0  0  0  0  0  0  0  0
    2.4850    4.2196   -1.0550 C   0  0  0  0  0  0  0  0  0  0  0  0
   -5.9128    1.4442    1.8562 H   0  0  0  0  0  0  0  0  0  0  0  0
   -6.1204   -0.3077    1.7470 H   0  0  0  0  0  0  0  0  0  0  0  0
   -3.8989    0.0502    2.8009 H   0  0  0  0  0  0  0  0  0  0  0  0
   -6.6190   -1.2247   -0.4680 H   0  0  0  0  0  0  0  0  0  0  0  0
   -6.6038   -0.1435   -1.8630 H   0  0  0  0  0  0  0  0  0  0  0  0
   -7.5973    0.2519   -0.4524 H   0  0  0  0  0  0  0  0  0  0  0  0
   -4.6625    2.6428   -0.1953 H   0  0  0  0  0  0  0  0  0  0  0  0
   -5.3799    2.1250   -1.7236 H   0  0  0  0  0  0  0  0  0  0  0  0
   -6.4229    2.5579   -0.3601 H   0  0  0  0  0  0  0  0  0  0  0  0
   -4.1244   -0.2933   -2.5825 H   0  0  0  0  0  0  0  0  0  0  0  0
   -1.6356   -0.7329    1.7163 H   0  0  0  0  0  0  0  0  0  0  0  0
   -1.8424   -1.2420   -2.5989 H   0  0  0  0  0  0  0  0  0  0  0  0
    0.0770   -1.8433   -1.4026 H   0  0  0  0  0  0  0  0  0  0  0  0
    1.2715   -4.3760    0.4525 H   0  0  0  0  0  0  0  0  0  0  0  0
    1.8530    0.2148   -0.1223 H   0  0  0  0  0  0  0  0  0  0  0  0
    4.7189    0.6291    0.3463 H   0  0  0  0  0  0  0  0  0  0  0  0
    4.2265    0.6499   -1.3359 H   0  0  0  0  0  0  0  0  0  0  0  0
    3.5078   -5.2937   -0.1367 H   0  0  0  0  0  0  0  0  0  0  0  0
    5.3508   -3.6849   -0.6548 H   0  0  0  0  0  0  0  0  0  0  0  0
    3.9718    2.3663    1.9263 H   0  0  0  0  0  0  0  0  0  0  0  0
    2.7566    2.4294   -2.2135 H   0  0  0  0  0  0  0  0  0  0  0  0
    3.2142    4.7343    2.0820 H   0  0  0  0  0  0  0  0  0  0  0  0
    2.0543    4.7946   -1.8681 H   0  0  0  0  0  0  0  0  0  0  0  0
  1 17  2  0  0  0  0
  2  8  1  0  0  0  0
  2 10  1  0  0  0  0
  2 31  1  0  0  0  0
  3 15  1  0  0  0  0
  3 17  1  0  0  0  0
  3 41  1  0  0  0  0
  4 19  1  0  0  0  0
  4 21  1  0  0  0  0
  4 43  1  0  0  0  0
  5 19  1  0  0  0  0
  5 24  2  0  0  0  0
  6 27  2  0  0  0  0
  6 28  1  0  0  0  0
  7  8  1  0  0  0  0
  7  9  1  0  0  0  0
  7 11  1  0  0  0  0
  7 12  1  0  0  0  0
  8 29  1  0  0  0  0
  8 30  1  0  0  0  0
  9 10  2  0  0  0  0
  9 13  1  0  0  0  0
 10 14  1  0  0  0  0
 11 32  1  0  0  0  0
 11 33  1  0  0  0  0
 11 34  1  0  0  0  0
 12 35  1  0  0  0  0
 12 36  1  0  0  0  0
 12 37  1  0  0  0  0
 13 16  2  0  0  0  0
 13 38  1  0  0  0  0
 14 15  2  0  0  0  0
 14 39  1  0  0  0  0
 15 16  1  0  0  0  0
 16 40  1  0  0  0  0
 17 18  1  0  0  0  0
 18 19  2  0  0  0  0
 18 20  1  0  0  0  0
 20 23  2  0  0  0  0
 20 42  1  0  0  0  0
 21 22  1  0  0  0  0
 21 44  1  0  0  0  0
 21 45  1  0  0  0  0
 22 25  2  0  0  0  0
 22 26  1  0  0  0  0
 23 24  1  0  0  0  0
 23 46  1  0  0  0  0
 24 47  1  0  0  0  0
 25 27  1  0  0  0  0
 25 48  1  0  0  0  0
 26 28  2  0  0  0  0
 26 49  1  0  0  0  0
 27 50  1  0  0  0  0
 28 51  1  0  0  0  0
M  END
> <PUBCHEM_COMPOUND_CID>
11667893

> <PUBCHEM_CONFORMER_RMSD>
0.8

> <PUBCHEM_CONFORMER_DIVERSEORDER>
1
20
45
84
42
82
81
40
36
7
43
14
37
39
30
68
62
78
32
75
69
80
67
21
51
24
66
2
26
85
28
46
60
65
12
47
44
74
6
27
73
83
25
23
56
55
3
19
70
58
63
41
76
22
17
61
29
8
34
77
16
53
79
50
18
72
5
33
54
38
49
15
31
48
52
35
64
9
71
59
11
57
13
4
10

> <PUBCHEM_MMFF94_PARTIAL_CHARGES>
39
1 -0.57
10 0.1
13 -0.15
14 -0.15
15 0.12
16 -0.15
17 0.54
18 0.09
19 0.41
2 -0.87
20 -0.15
21 0.51
22 -0.14
23 -0.15
24 0.16
25 -0.15
26 -0.15
27 0.16
28 0.16
3 -0.55
31 0.4
38 0.15
39 0.15
4 -0.87
40 0.15
41 0.37
42 0.15
43 0.4
46 0.15
47 0.15
48 0.15
49 0.15
5 -0.62
50 0.15
51 0.15
6 -0.62
7 0.14
8 0.37
9 -0.14

> <PUBCHEM_EFFECTIVE_ROTOR_COUNT>
6.6

> <PUBCHEM_PHARMACOPHORE_FEATURES>
13
1 1 acceptor
1 2 cation
1 2 donor
1 3 donor
1 4 cation
1 4 donor
1 5 acceptor
1 6 acceptor
3 7 11 12 hydrophobe
5 2 7 8 9 10 rings
6 5 18 19 20 23 24 rings
6 6 22 25 26 27 28 rings
6 9 10 13 14 15 16 rings

> <PUBCHEM_HEAVY_ATOM_COUNT>
28

> <PUBCHEM_ATOM_DEF_STEREO_COUNT>
0

> <PUBCHEM_ATOM_UDEF_STEREO_COUNT>
0

> <PUBCHEM_BOND_DEF_STEREO_COUNT>
0

> <PUBCHEM_BOND_UDEF_STEREO_COUNT>
0

> <PUBCHEM_ISOTOPIC_ATOM_COUNT>
0

> <PUBCHEM_COMPONENT_COUNT>
1

> <PUBCHEM_CACTVS_TAUTO_COUNT>
7

> <PUBCHEM_CONFORMER_ID>
00B209B500000001

> <PUBCHEM_MMFF94_ENERGY>
113.9428

> <PUBCHEM_FEATURE_SELFOVERLAP>
66.06

> <PUBCHEM_SHAPE_FINGERPRINT>
10483366 6 18263098707976814644
10615611 76 17916607361846338209
10675989 125 18272091659649466600
10763959 59 18337389314839582045
10937287 8 18051412065630456852
11059048 146 17831873716963498340
11059845 2 17620450838710713056
12166972 35 18200590290035576563
12236239 1 17845648132485349283
12925494 130 18335698287959173381
13590594 115 18194968431263818874
13878862 14 18262499430398693477
13944108 23 18333736788873700276
14556957 393 17688346429086912702
14848178 96 18267867370403353936
15021287 119 18198901422895651823
151778 21 18189341349712356140
15629462 23 17540828191649723002
16988056 13 18337667521367493948
1768 85 18336838584141834697
17844677 252 18338520716889648783
1813 80 17984428438445405870
19319366 153 18200874105442396385
21033648 29 17530960246767771479
21133410 127 17968373566993541373
21365058 113 18194700171685733302
21860390 5 18342745100566460870
22122407 14 18268444442931866681
23522609 53 17702963517180857897
23559900 14 18410009893101440971
24771293 8 18200856449918870442
4015057 19 18335707083634925387
44317340 157 18411702093589355985
474 4 18338796818255448258
58902169 19 18057867071265023997
6034566 193 17756714396201903493
6086070 43 17972299738932977839
6201320 215 16106986435561243728
6823239 73 16443641124384867502
9981440 41 17979066416731111762

> <PUBCHEM_SHAPE_MULTIPOLES>
545.45
13.31
6.02
1.39
19.29
4.1
-0.14
3.13
0.55
-13.66
0.03
1.1
0.4
0.13

> <PUBCHEM_SHAPE_SELFOVERLAP>
1193.639

> <PUBCHEM_SHAPE_VOLUME>
295

> <PUBCHEM_COORDINATE_TYPE>
2
5
10

$$$$
121293929
  -OEChem-11282412143D

 50 52  0     1  0  0  0  0  0999 V2000
    1.4503    3.1554   -0.6702 F   0  0  0  0  0  0  0  0  0  0  0  0
   -3.8345    0.5349   -2.3789 O   0  0  0  0  0  0  0  0  0  0  0  0
    5.0644   -1.5760   -0.7139 O   0  0  0  0  0  0  0  0  0  0  0  0
   -0.4065    1.5530    0.5720 N   0  0  2  0  0  0  0  0  0  0  0  0
   -3.2205    0.6515   -0.1353 N   0  0  0  0  0  0  0  0  0  0  0  0
    2.5619   -2.0689    0.4707 N   0  0  0  0  0  0  0  0  0  0  0  0
    5.5819    0.5004   -1.5377 N   0  0  0  0  0  0  0  0  0  0  0  0
   -2.7358    2.0135   -0.1240 C   0  0  2  0  0  0  0  0  0  0  0  0
   -1.2552    2.0690   -0.5138 C   0  0  0  0  0  0  0  0  0  0  0  0
   -2.9817    2.6730    1.2339 C   0  0  0  0  0  0  0  0  0  0  0  0
   -0.5938    2.1653    1.8911 C   0  0  0  0  0  0  0  0  0  0  0  0
   -2.0617    2.0983    2.3078 C   0  0  0  0  0  0  0  0  0  0  0  0
    0.8466    1.0380    0.2216 C   0  0  0  0  0  0  0  0  0  0  0  0
    1.2027   -0.2998    0.4843 C   0  0  0  0  0  0  0  0  0  0  0  0
    2.4707   -0.7449    0.1046 C   0  0  0  0  0  0  0  0  0  0  0  0
    0.5373   -1.4020    1.0905 C   0  0  0  0  0  0  0  0  0  0  0  0
    1.7703    1.8789   -0.4099 C   0  0  0  0  0  0  0  0  0  0  0  0
    1.3984   -2.4749    1.0675 C   0  0  0  0  0  0  0  0  0  0  0  0
    3.4042    0.0843   -0.5274 C   0  0  0  0  0  0  0  0  0  0  0  0
    3.0288    1.4073   -0.7778 C   0  0  0  0  0  0  0  0  0  0  0  0
   -0.8312   -1.4100    1.6501 C   0  0  0  0  0  0  0  0  0  0  0  0
   -3.7255    0.0387   -1.2644 C   0  0  0  0  0  0  0  0  0  0  0  0
    1.2373   -3.8585    1.5543 C   0  0  0  0  0  0  0  0  0  0  0  0
    4.7183   -0.3971   -0.9140 C   0  0  0  0  0  0  0  0  0  0  0  0
   -4.1571   -1.3264   -1.0674 C   0  0  0  0  0  0  0  0  0  0  0  0
   -4.5162   -2.4610   -0.9056 C   0  0  0  0  0  0  0  0  0  0  0  0
   -4.9535   -3.8422   -0.7082 C   0  0  0  0  0  0  0  0  0  0  0  0
   -3.3071    2.5642   -0.8818 H   0  0  0  0  0  0  0  0  0  0  0  0
   -1.0948    1.4911   -1.4333 H   0  0  0  0  0  0  0  0  0  0  0  0
   -0.9795    3.1093   -0.7271 H   0  0  0  0  0  0  0  0  0  0  0  0
   -4.0270    2.5472    1.5399 H   0  0  0  0  0  0  0  0  0  0  0  0
   -2.7995    3.7518    1.1490 H   0  0  0  0  0  0  0  0  0  0  0  0
   -0.2571    3.2089    1.8595 H   0  0  0  0  0  0  0  0  0  0  0  0
    0.0121    1.6515    2.6471 H   0  0  0  0  0  0  0  0  0  0  0  0
   -2.1986    2.6561    3.2415 H   0  0  0  0  0  0  0  0  0  0  0  0
   -2.3474    1.0638    2.5231 H   0  0  0  0  0  0  0  0  0  0  0  0
   -3.1941    0.1254    0.7322 H   0  0  0  0  0  0  0  0  0  0  0  0
    3.3721   -2.6541    0.3197 H   0  0  0  0  0  0  0  0  0  0  0  0
    3.6783    2.1278   -1.2621 H   0  0  0  0  0  0  0  0  0  0  0  0
   -1.5551   -1.1751    0.8708 H   0  0  0  0  0  0  0  0  0  0  0  0
   -1.1013   -2.3929    2.0499 H   0  0  0  0  0  0  0  0  0  0  0  0
   -0.9189   -0.6974    2.4723 H   0  0  0  0  0  0  0  0  0  0  0  0
    0.3983   -4.3475    1.0486 H   0  0  0  0  0  0  0  0  0  0  0  0
    2.1329   -4.4626    1.3752 H   0  0  0  0  0  0  0  0  0  0  0  0
    1.0400   -3.8655    2.6312 H   0  0  0  0  0  0  0  0  0  0  0  0
    5.3808    1.4708   -1.7420 H   0  0  0  0  0  0  0  0  0  0  0  0
    6.5039    0.1862   -1.8238 H   0  0  0  0  0  0  0  0  0  0  0  0
   -4.2206   -4.4016   -0.1190 H   0  0  0  0  0  0  0  0  0  0  0  0
   -5.9108   -3.8756   -0.1795 H   0  0  0  0  0  0  0  0  0  0  0  0
   -5.0777   -4.3522   -1.6682 H   0  0  0  0  0  0  0  0  0  0  0  0
  1 17  1  0  0  0  0
  2 22  2  0  0  0  0
  3 24  2  0  0  0  0
  4  9  1  0  0  0  0
  4 11  1  0  0  0  0
  4 13  1  0  0  0  0
  5  8  1  0  0  0  0
  5 22  1  0  0  0  0
  5 37  1  0  0  0  0
  6 15  1  0  0  0  0
  6 18  1  0  0  0  0
  6 38  1  0  0  0  0
  7 24  1  0  0  0  0
  7 46  1  0  0  0  0
  7 47  1  0  0  0  0
  8  9  1  0  0  0  0
  8 10  1  0  0  0  0
  8 28  1  0  0  0  0
  9 29  1  0  0  0  0
  9 30  1  0  0  0  0
 10 12  1  0  0  0  0
 10 31  1  0  0  0  0
 10 32  1  0  0  0  0
 11 12  1  0  0  0  0
 11 33  1  0  0  0  0
 11 34  1  0  0  0  0
 12 35  1  0  0  0  0
 12 36  1  0  0  0  0
 13 14  1  0  0  0  0
 13 17  2  0  0  0  0
 14 15  2  0  0  0  0
 14 16  1  0  0  0  0
 15 19  1  0  0  0  0
 16 18  2  0  0  0  0
 16 21  1  0  0  0  0
 17 20  1  0  0  0  0
 18 23  1  0  0  0  0
 19 20  2  0  0  0  0
 19 24  1  0  0  0  0
 20 39  1  0  0  0  0
 21 40  1  0  0  0  0
 21 41  1  0  0  0  0
 21 42  1  0  0  0  0
 22 25  1  0  0  0  0
 23 43  1  0  0  0  0
 23 44  1  0  0  0  0
 23 45  1  0  0  0  0
 25 26  3  0  0  0  0
 26 27  1  0  0  0  0
 27 48  1  0  0  0  0
 27 49  1  0  0  0  0
 27 50  1  0  0  0  0
M  END
> <PUBCHEM_COMPOUND_CID>
121293929

> <PUBCHEM_CONFORMER_RMSD>
0.8

> <PUBCHEM_CONFORMER_DIVERSEORDER>
2
19
18
9
17
8
16
7
21
24
4
25
23
15
26
10
6
13
14
5
12
11
20
22
3
1

> <PUBCHEM_MMFF94_PARTIAL_CHARGES>
29
1 -0.19
11 0.37
13 0.1
15 -0.15
16 -0.18
17 0.19
18 -0.33
19 0.09
2 -0.57
20 -0.15
21 0.18
22 0.74
23 0.18
24 0.54
25 -0.1
26 -0.2
27 0.2
3 -0.57
37 0.37
38 0.27
39 0.15
4 -0.84
46 0.37
47 0.37
5 -0.73
6 0.03
7 -0.8
8 0.3
9 0.37

> <PUBCHEM_EFFECTIVE_ROTOR_COUNT>
5.2

> <PUBCHEM_PHARMACOPHORE_FEATURES>
11
1 2 acceptor
1 27 hydrophobe
1 3 acceptor
1 4 cation
1 5 donor
1 6 cation
1 6 donor
1 7 donor
5 6 14 15 16 18 rings
6 13 14 15 17 19 20 rings
6 4 8 9 10 11 12 rings

> <PUBCHEM_HEAVY_ATOM_COUNT>
27

> <PUBCHEM_ATOM_DEF_STEREO_COUNT>
1

> <PUBCHEM_ATOM_UDEF_STEREO_COUNT>
0

> <PUBCHEM_BOND_DEF_STEREO_COUNT>
0

> <PUBCHEM_BOND_UDEF_STEREO_COUNT>
0

> <PUBCHEM_ISOTOPIC_ATOM_COUNT>
0

> <PUBCHEM_COMPONENT_COUNT>
1

> <PUBCHEM_CACTVS_TAUTO_COUNT>
72

> <PUBCHEM_CONFORMER_ID>
073ACC6900000002

> <PUBCHEM_MMFF94_ENERGY>
61.3569

> <PUBCHEM_FEATURE_SELFOVERLAP>
55.912

> <PUBCHEM_SHAPE_FINGERPRINT>
108634 29 18118966042666323490
114674 6 17691383623557093283
12035759 4 18409446964295307962
12236239 1 18056770831548414608
12596599 1 18127414445058256132
12788726 201 17916296153080179025
13009979 54 17983564209309977531
13140716 1 18189918469290050512
13383661 66 17701845338771567918
13631057 29 18342172288866857111
13911987 19 17896060800953844780
14251757 5 18272929385178617525
14787075 74 17986373702179726920
14931854 50 18334285496636212959
17138139 8 18338791333503544766
17349148 13 18260543386343581192
17492 54 17967530168538193732
17909252 39 18130508638488692650
20775438 99 16903531942176299399
20775530 9 18267853051673401263
21634736 98 18339071683288027029
221357 26 18265328594155601415
22393880 68 18261661623707124797
23379529 103 18201725101572856183
238 59 17822006501830451945
238918 7 16756889006942694995
3737641 26 18194119853506941563
4409770 3 16538469948116964216
469060 322 16806757099196212827
484989 97 17826802734712699755
57527585 21 16443647708959960791

> <PUBCHEM_SHAPE_MULTIPOLES>
516.71
9.52
4.31
1.84
0.79
2.24
-0.39
5.2
6.56
-3.26
-1.4
-0.9
-0.22
-2.28

> <PUBCHEM_SHAPE_SELFOVERLAP>
1107.929

> <PUBCHEM_SHAPE_VOLUME>
286.7

> <PUBCHEM_COORDINATE_TYPE>
2
5
10

$$$$
3220
  -OEChem-11282412143D

 30 32  0     0  0  0  0  0  0999 V2000
   -2.5416    2.6359   -0.0003 O   0  0  0  0  0  0  0  0  0  0  0  0
    0.0183    2.5369    0.0002 O   0  0  0  0  0  0  0  0  0  0  0  0
   -0.0087   -2.8071    0.0010 O   0  0  0  0  0  0  0  0  0  0  0  0
    2.5792    2.6101    0.0012 O   0  0  0  0  0  0  0  0  0  0  0  0
    4.8713   -1.5356   -0.0011 O   0  0  0  0  0  0  0  0  0  0  0  0
   -1.2715   -0.8267    0.0003 C   0  0  0  0  0  0  0  0  0  0  0  0
   -1.2646    0.5697    0.0001 C   0  0  0  0  0  0  0  0  0  0  0  0
    1.2816    0.5569    0.0005 C   0  0  0  0  0  0  0  0  0  0  0  0
    1.2745   -0.8395    0.0003 C   0  0  0  0  0  0  0  0  0  0  0  0
    0.0122    1.3126   -0.0003 C   0  0  0  0  0  0  0  0  0  0  0  0
   -0.0023   -1.5823    0.0007 C   0  0  0  0  0  0  0  0  0  0  0  0
   -2.4886   -1.5188    0.0002 C   0  0  0  0  0  0  0  0  0  0  0  0
   -2.4746    1.2740   -0.0006 C   0  0  0  0  0  0  0  0  0  0  0  0
   -3.6921   -0.8130   -0.0001 C   0  0  0  0  0  0  0  0  0  0  0  0
    2.4986    1.2490    0.0005 C   0  0  0  0  0  0  0  0  0  0  0  0
    2.4845   -1.5439   -0.0004 C   0  0  0  0  0  0  0  0  0  0  0  0
   -3.6851    0.5803   -0.0009 C   0  0  0  0  0  0  0  0  0  0  0  0
    3.6949   -0.8502   -0.0008 C   0  0  0  0  0  0  0  0  0  0  0  0
    3.7020    0.5433   -0.0003 C   0  0  0  0  0  0  0  0  0  0  0  0
   -4.9881   -1.5513    0.0000 C   0  0  0  0  0  0  0  0  0  0  0  0
   -2.5081   -2.6060   -0.0014 H   0  0  0  0  0  0  0  0  0  0  0  0
    2.4921   -2.6312   -0.0005 H   0  0  0  0  0  0  0  0  0  0  0  0
   -4.6224    1.1321   -0.0033 H   0  0  0  0  0  0  0  0  0  0  0  0
    4.6533    1.0702   -0.0004 H   0  0  0  0  0  0  0  0  0  0  0  0
   -5.2950   -1.7715   -1.0273 H   0  0  0  0  0  0  0  0  0  0  0  0
   -4.9047   -2.4936    0.5522 H   0  0  0  0  0  0  0  0  0  0  0  0
   -5.7781   -0.9665    0.4835 H   0  0  0  0  0  0  0  0  0  0  0  0
   -1.6543    3.0245    0.0018 H   0  0  0  0  0  0  0  0  0  0  0  0
    3.5126    2.8827    0.0011 H   0  0  0  0  0  0  0  0  0  0  0  0
    4.6814   -2.4895   -0.0013 H   0  0  0  0  0  0  0  0  0  0  0  0
  1 13  1  0  0  0  0
  1 28  1  0  0  0  0
  2 10  2  0  0  0  0
  3 11  2  0  0  0  0
  4 15  1  0  0  0  0
  4 29  1  0  0  0  0
  5 18  1  0  0  0  0
  5 30  1  0  0  0  0
  6  7  2  0  0  0  0
  6 11  1  0  0  0  0
  6 12  1  0  0  0  0
  7 10  1  0  0  0  0
  7 13  1  0  0  0  0
  8  9  2  0  0  0  0
  8 10  1  0  0  0  0
  8 15  1  0  0  0  0
  9 11  1  0  0  0  0
  9 16  1  0  0  0  0
 12 14  2  0  0  0  0
 12 21  1  0  0  0  0
 13 17  2  0  0  0  0
 14 17  1  0  0  0  0
 14 20  1  0  0  0  0
 15 19  2  0  0  0  0
 16 18  2  0  0  0  0
 16 22  1  0  0  0  0
 17 23  1  0  0  0  0
 18 19  1  0  0  0  0
 19 24  1  0  0  0  0
 20 25  1  0  0  0  0
 20 26  1  0  0  0  0
 20 27  1  0  0  0  0
M  END
> <PUBCHEM_COMPOUND_CID>
3220

> <PUBCHEM_CONFORMER_RMSD>
0.6

> <PUBCHEM_CONFORMER_DIVERSEORDER>
1

> <PUBCHEM_MMFF94_PARTIAL_CHARGES>
27
1 -0.53
10 0.4
11 0.4
12 -0.15
13 0.08
14 -0.14
15 0.08
16 -0.15
17 -0.15
18 0.08
19 -0.15
2 -0.57
20 0.14
21 0.15
22 0.15
23 0.15
24 0.15
28 0.45
29 0.45
3 -0.57
30 0.45
4 -0.53
5 -0.53
6 0.09
7 0.09
8 0.09
9 0.09

> <PUBCHEM_EFFECTIVE_ROTOR_COUNT>
0

> <PUBCHEM_PHARMACOPHORE_FEATURES>
8
1 1 donor
1 2 acceptor
1 3 acceptor
1 4 donor
1 5 donor
6 6 7 12 13 14 17 rings
6 6 7 8 9 10 11 rings
6 8 9 15 16 18 19 rings

> <PUBCHEM_HEAVY_ATOM_COUNT>
20

> <PUBCHEM_ATOM_DEF_STEREO_COUNT>
0

> <PUBCHEM_ATOM_UDEF_STEREO_COUNT>
0

> <PUBCHEM_BOND_DEF_STEREO_COUNT>
0

> <PUBCHEM_BOND_UDEF_STEREO_COUNT>
0

> <PUBCHEM_ISOTOPIC_ATOM_COUNT>
0

> <PUBCHEM_COMPONENT_COUNT>
1

> <PUBCHEM_CACTVS_TAUTO_COUNT>
135

> <PUBCHEM_CONFORMER_ID>
00000C9400000001

> <PUBCHEM_MMFF94_ENERGY>
62.0452

> <PUBCHEM_FEATURE_SELFOVERLAP>
40.639

> <PUBCHEM_SHAPE_FINGERPRINT>
10062212 137 18338508647424982939
10608611 8 18410571786139043909
10616163 171 18339643330634852415
10967382 1 18266740383848238053
1100329 8 16897082734794048186
11132069 177 18411694374636365176
11471102 20 18410007779702704742
11680986 33 18190747637652328035
11806522 49 18409447020472683247
12032990 46 18410857659162012327
12236239 1 17845939645369966175
12403259 226 18410569587115963756
12403260 363 18410851062081689675
13140716 1 18340205193740125504
13288520 33 18340208492739063374
13862211 1 18410569591453401891
14790565 3 17111296762987747973
15196674 1 18410856559650391045
15230672 131 13290523891980396643
15442244 35 18410855443249050960
15536298 74 18342457071200442104
16945 1 18122063362420793543
17492 89 18338797819010130835
17802600 8 18410853265410488003
17804303 29 18411704270246322292
19591789 44 18410855460165468327
200 152 18202557398179280327
20028762 73 18201715206337847991
20510252 161 18343865519562329049
21267235 1 18410864260521906767
21501502 16 18410579478446563561
221490 88 18336271231535737466
2334 1 18410855490198383013
23366157 5 18041278872370242652
23402539 116 18342449327037154862
23463225 33 18409449184888170092
23559900 14 18413101767127451776
238 59 15587627049950036645
2748010 2 18410572885639907948
2871803 45 18334850632722179807
3286 77 18335137596455929558
335352 9 18194402195180543812
350125 39 18410578383251099545
4214541 1 18410573946607723137
474 4 17241616202886910844
5104073 3 18411699880784523881
69090 78 18342454884814519407
7364860 26 18341331210143776312
8809292 202 18333455347797148515
9709674 26 18411425015810421374
9981440 41 17470727071495432648

> <PUBCHEM_SHAPE_MULTIPOLES>
382.24
7.97
2.76
0.59
0.69
0.77
0
-2.38
0
-0.07
0
0.03
-0.02
0

> <PUBCHEM_SHAPE_SELFOVERLAP>
867.007

> <PUBCHEM_SHAPE_VOLUME>
198.5

> <PUBCHEM_COORDINATE_TYPE>
2
5
10

$$$$
73438222
  -OEChem-11282412143D

 70 74  0     1  0  0  0  0  0999 V2000
    3.0282   -0.5225    2.0523 F   0  0  0  0  0  0  0  0  0  0  0  0
   -6.5540   -2.4520    0.4692 O   0  0  0  0  0  0  0  0  0  0  0  0
    5.8914   -1.3283   -1.6483 O   0  0  0  0  0  0  0  0  0  0  0  0
   -4.2608   -2.1007    0.6242 N   0  0  0  0  0  0  0  0  0  0  0  0
   -1.0802   -0.0286    1.0534 N   0  0  0  0  0  0  0  0  0  0  0  0
   -0.0401   -0.7398    0.5799 N   0  0  0  0  0  0  0  0  0  0  0  0
   -1.6717    2.2595    1.5795 N   0  0  0  0  0  0  0  0  0  0  0  0
    0.1682    3.7946    1.1225 N   0  0  0  0  0  0  0  0  0  0  0  0
    2.2718    3.0666    0.2610 N   0  0  0  0  0  0  0  0  0  0  0  0
   -5.4194   -1.6049   -3.3914 N   0  0  0  0  0  0  0  0  0  0  0  0
   -2.3656   -0.7416    1.4262 C   0  0  2  0  0  0  0  0  0  0  0  0
   -2.1514   -1.7507    2.5724 C   0  0  0  0  0  0  0  0  0  0  0  0
   -3.0133   -1.4367    0.2163 C   0  0  0  0  0  0  0  0  0  0  0  0
   -3.4533   -2.4797    2.9141 C   0  0  0  0  0  0  0  0  0  0  0  0
   -4.0834   -3.1079    1.6726 C   0  0  0  0  0  0  0  0  0  0  0  0
   -0.8298    1.3082    1.1450 C   0  0  0  0  0  0  0  0  0  0  0  0
   -5.5317   -1.8663    0.1083 C   0  0  0  0  0  0  0  0  0  0  0  0
    0.4682    1.4852    0.6992 C   0  0  0  0  0  0  0  0  0  0  0  0
    0.8997    0.1877    0.3660 C   0  0  0  0  0  0  0  0  0  0  0  0
   -5.6683   -0.8377   -0.9419 C   0  0  0  0  0  0  0  0  0  0  0  0
   -6.1161    1.7367   -1.2425 C   0  0  0  0  0  0  0  0  0  0  0  0
    0.9643    2.7846    0.6966 C   0  0  0  0  0  0  0  0  0  0  0  0
    2.1874   -0.2031   -0.1494 C   0  0  0  0  0  0  0  0  0  0  0  0
   -5.9116    0.4115   -0.5092 C   0  0  0  0  0  0  0  0  0  0  0  0
   -4.8111    2.0611   -1.9961 C   0  0  0  0  0  0  0  0  0  0  0  0
   -6.3594    2.8272   -0.1802 C   0  0  0  0  0  0  0  0  0  0  0  0
   -7.2731    1.7944   -2.2531 C   0  0  0  0  0  0  0  0  0  0  0  0
   -1.0825    3.4739    1.5316 C   0  0  0  0  0  0  0  0  0  0  0  0
    3.2179   -0.5487    0.7250 C   0  0  0  0  0  0  0  0  0  0  0  0
    2.4017   -0.2357   -1.5275 C   0  0  0  0  0  0  0  0  0  0  0  0
   -5.5339   -1.2451   -2.2939 C   0  0  0  0  0  0  0  0  0  0  0  0
    4.4626   -0.9266    0.2213 C   0  0  0  0  0  0  0  0  0  0  0  0
    3.6465   -0.6133   -2.0311 C   0  0  0  0  0  0  0  0  0  0  0  0
    4.6770   -0.9590   -1.1567 C   0  0  0  0  0  0  0  0  0  0  0  0
    7.0185   -0.7882   -1.0519 C   0  0  0  0  0  0  0  0  0  0  0  0
    7.0670    0.5747   -0.7588 C   0  0  0  0  0  0  0  0  0  0  0  0
    8.1058   -1.6066   -0.7459 C   0  0  0  0  0  0  0  0  0  0  0  0
    8.2029    1.1192   -0.1593 C   0  0  0  0  0  0  0  0  0  0  0  0
    9.2417   -1.0622   -0.1465 C   0  0  0  0  0  0  0  0  0  0  0  0
    9.2901    0.3007    0.1469 C   0  0  0  0  0  0  0  0  0  0  0  0
   -3.0377    0.0509    1.7808 H   0  0  0  0  0  0  0  0  0  0  0  0
   -1.7715   -1.2337    3.4616 H   0  0  0  0  0  0  0  0  0  0  0  0
   -1.3898   -2.4883    2.2891 H   0  0  0  0  0  0  0  0  0  0  0  0
   -2.3527   -2.2083   -0.1981 H   0  0  0  0  0  0  0  0  0  0  0  0
   -3.1858   -0.7089   -0.5805 H   0  0  0  0  0  0  0  0  0  0  0  0
   -3.2602   -3.2525    3.6662 H   0  0  0  0  0  0  0  0  0  0  0  0
   -4.1574   -1.7640    3.3565 H   0  0  0  0  0  0  0  0  0  0  0  0
   -3.4370   -3.8961    1.2688 H   0  0  0  0  0  0  0  0  0  0  0  0
   -5.0389   -3.5709    1.9382 H   0  0  0  0  0  0  0  0  0  0  0  0
   -5.9789    0.5159    0.5774 H   0  0  0  0  0  0  0  0  0  0  0  0
   -3.9416    2.0248   -1.3282 H   0  0  0  0  0  0  0  0  0  0  0  0
   -4.6259    1.3677   -2.8231 H   0  0  0  0  0  0  0  0  0  0  0  0
   -4.8480    3.0695   -2.4256 H   0  0  0  0  0  0  0  0  0  0  0  0
   -7.2784    2.6342    0.3859 H   0  0  0  0  0  0  0  0  0  0  0  0
   -5.5304    2.8865    0.5356 H   0  0  0  0  0  0  0  0  0  0  0  0
   -6.4588    3.8161   -0.6431 H   0  0  0  0  0  0  0  0  0  0  0  0
   -7.1306    1.0811   -3.0716 H   0  0  0  0  0  0  0  0  0  0  0  0
   -8.2256    1.5510   -1.7686 H   0  0  0  0  0  0  0  0  0  0  0  0
   -7.3684    2.7914   -2.6981 H   0  0  0  0  0  0  0  0  0  0  0  0
   -1.6931    4.3059    1.8658 H   0  0  0  0  0  0  0  0  0  0  0  0
    1.6091    0.0311   -2.2227 H   0  0  0  0  0  0  0  0  0  0  0  0
    2.8879    2.3353   -0.0620 H   0  0  0  0  0  0  0  0  0  0  0  0
    2.5926    4.0255    0.2753 H   0  0  0  0  0  0  0  0  0  0  0  0
    5.2396   -1.2118    0.9255 H   0  0  0  0  0  0  0  0  0  0  0  0
    3.8078   -0.6362   -3.1053 H   0  0  0  0  0  0  0  0  0  0  0  0
    6.2436    1.2393   -1.0066 H   0  0  0  0  0  0  0  0  0  0  0  0
    8.0733   -2.6688   -0.9721 H   0  0  0  0  0  0  0  0  0  0  0  0
    8.2429    2.1812    0.0645 H   0  0  0  0  0  0  0  0  0  0  0  0
   10.0884   -1.6993    0.0917 H   0  0  0  0  0  0  0  0  0  0  0  0
   10.1748    0.7248    0.6127 H   0  0  0  0  0  0  0  0  0  0  0  0
  1 29  1  0  0  0  0
  2 17  2  0  0  0  0
  3 34  1  0  0  0  0
  3 35  1  0  0  0  0
  4 13  1  0  0  0  0
  4 15  1  0  0  0  0
  4 17  1  0  0  0  0
  5  6  1  0  0  0  0
  5 11  1  0  0  0  0
  5 16  1  0  0  0  0
  6 19  2  0  0  0  0
  7 16  2  0  0  0  0
  7 28  1  0  0  0  0
  8 22  1  0  0  0  0
  8 28  2  0  0  0  0
  9 22  1  0  0  0  0
  9 62  1  0  0  0  0
  9 63  1  0  0  0  0
 10 31  3  0  0  0  0
 11 12  1  0  0  0  0
 11 13  1  0  0  0  0
 11 41  1  0  0  0  0
 12 14  1  0  0  0  0
 12 42  1  0  0  0  0
 12 43  1  0  0  0  0
 13 44  1  0  0  0  0
 13 45  1  0  0  0  0
 14 15  1  0  0  0  0
 14 46  1  0  0  0  0
 14 47  1  0  0  0  0
 15 48  1  0  0  0  0
 15 49  1  0  0  0  0
 16 18  1  0  0  0  0
 17 20  1  0  0  0  0
 18 19  1  0  0  0  0
 18 22  2  0  0  0  0
 19 23  1  0  0  0  0
 20 24  2  0  0  0  0
 20 31  1  0  0  0  0
 21 24  1  0  0  0  0
 21 25  1  0  0  0  0
 21 26  1  0  0  0  0
 21 27  1  0  0  0  0
 23 29  2  0  0  0  0
 23 30  1  0  0  0  0
 24 50  1  0  0  0  0
 25 51  1  0  0  0  0
 25 52  1  0  0  0  0
 25 53  1  0  0  0  0
 26 54  1  0  0  0  0
 26 55  1  0  0  0  0
 26 56  1  0  0  0  0
 27 57  1  0  0  0  0
 27 58  1  0  0  0  0
 27 59  1  0  0  0  0
 28 60  1  0  0  0  0
 29 32  1  0  0  0  0
 30 33  2  0  0  0  0
 30 61  1  0  0  0  0
 32 34  2  0  0  0  0
 32 64  1  0  0  0  0
 33 34  1  0  0  0  0
 33 65  1  0  0  0  0
 35 36  2  0  0  0  0
 35 37  1  0  0  0  0
 36 38  1  0  0  0  0
 36 66  1  0  0  0  0
 37 39  2  0  0  0  0
 37 67  1  0  0  0  0
 38 40  2  0  0  0  0
 38 68  1  0  0  0  0
 39 40  1  0  0  0  0
 39 69  1  0  0  0  0
 40 70  1  0  0  0  0
M  END
> <PUBCHEM_COMPOUND_CID>
73438222

> <PUBCHEM_CONFORMER_RMSD>
1.4

> <PUBCHEM_CONFORMER_DIVERSEORDER>
1
36
23
32
144
45
108
69
131
121
125
127
146
79
57
142
40
126
133
134
41
100
141
30
112
17
12
20
25
136
65
137
86
118
77
135
49
58
120
119
4
80
129
31
117
138
109
47
113
143
94
123
139
24
114
18
74
149
130
70
42
43
95
67
62
50
110
9
22
105
60
63
68
147
89
72
29
145
46
102
66
90
84
140
75
124
51
85
64
54
34
56
19
52
116
97
78
96
10
103
81
128
38
104
88
71
148
26
35
115
76
82
111
73
106
83
21
44
87
122
99
16
11
8
37
101
91
48
61
132
15
14
27
33
98
5
92
93
28
53
107
7
3
59
39
55
13
2
6

> <PUBCHEM_MMFF94_PARTIAL_CHARGES>
46
1 -0.19
10 -0.56
11 0.26
13 0.3
15 0.3
16 0.11
17 0.62
19 0.23
2 -0.57
20 0.08
21 0.14
22 0.41
23 0.05
24 -0.29
28 0.47
29 0.19
3 -0.17
30 -0.15
31 0.49
32 -0.15
33 -0.15
34 0.08
35 0.08
36 -0.15
37 -0.15
38 -0.15
39 -0.15
4 -0.66
40 -0.15
5 0.31
50 0.15
6 -0.71
60 0.15
61 0.15
62 0.4
63 0.4
64 0.15
65 0.15
66 0.15
67 0.15
68 0.15
69 0.15
7 -0.57
70 0.15
8 -0.62
9 -0.9

> <PUBCHEM_EFFECTIVE_ROTOR_COUNT>
8.2

> <PUBCHEM_PHARMACOPHORE_FEATURES>
14
1 10 acceptor
1 2 acceptor
1 3 acceptor
1 6 acceptor
1 9 cation
1 9 donor
3 5 7 16 cation
3 7 8 28 cation
4 21 25 26 27 hydrophobe
5 5 6 16 18 19 rings
6 23 29 30 32 33 34 rings
6 35 36 37 38 39 40 rings
6 4 11 12 13 14 15 rings
6 7 8 16 18 22 28 rings

> <PUBCHEM_HEAVY_ATOM_COUNT>
40

> <PUBCHEM_ATOM_DEF_STEREO_COUNT>
1

> <PUBCHEM_ATOM_UDEF_STEREO_COUNT>
0

> <PUBCHEM_BOND_DEF_STEREO_COUNT>
1

> <PUBCHEM_BOND_UDEF_STEREO_COUNT>
0

> <PUBCHEM_ISOTOPIC_ATOM_COUNT>
0

> <PUBCHEM_COMPONENT_COUNT>
1

> <PUBCHEM_CACTVS_TAUTO_COUNT>
5

> <PUBCHEM_CONFORMER_ID>
0460940E00000001

> <PUBCHEM_MMFF94_ENERGY>
115.5273

> <PUBCHEM_FEATURE_SELFOVERLAP>
71.327

> <PUBCHEM_SHAPE_FINGERPRINT>
10165383 225 17968096366631882197
10577160 103 18341047506079435416
10577160 183 16877936136056339706
10670039 82 17385720314484592999
10674148 151 18202004288434128529
11200772 48 18333734589986853683
12082328 90 18260829297832182567
12373685 5 18261389989165393850
12539747 91 17774710992767789152
12758862 11 17895194453893091240
12857493 111 18201719540076004728
13690498 29 18042976565473808643
13811026 1 18412823612651103864
13914758 101 17458347442560430452
14279260 333 18340770330359238975
14444916 359 7997970189666022176
1454969 45 17847066606001420830
15183329 4 16371005230275626718
15361156 5 18413103970630518885
16992727 255 18114744811638055957
19304152 47 11743850126969346083
21033650 10 17530964713702492921
21223535 225 14634860951211350846
21756936 100 13840263693680052667
23536364 44 18410578371162367185
3633792 109 17676204629386174082
38570 142 13045936940872364666
395649 100 18411139108653996172
3986486 107 18271794689590619389
4394409 98 18333456438671920950
444735 79 9799397946028369941
49967989 163 18261122880348197818
57527295 17 18337095801534147723
5776283 40 18261106362410008873
5969126 39 18202286887953623240
6009941 240 18259706687616691215
6523845 18 11386371460417647916

> <PUBCHEM_SHAPE_MULTIPOLES>
769.3
25.16
3.58
2.47
39.75
1.9
-0.53
-4.17
-13.68
-5.99
1.9
-3.77
-0.7
2.83

> <PUBCHEM_SHAPE_SELFOVERLAP>
1674.796

> <PUBCHEM_SHAPE_VOLUME>
419.7

> <PUBCHEM_COORDINATE_TYPE>
2
5
10

$$$$
118107483
  -OEChem-11282412143D

 64 67  0     0  0  0  0  0  0999 V2000
    3.2596   -2.0429   -0.6691 F   0  0  0  0  0  0  0  0  0  0  0  0
   -2.0058    2.0944   -3.1715 F   0  0  0  0  0  0  0  0  0  0  0  0
    2.4680    1.6264   -1.9575 O   0  0  0  0  0  0  0  0  0  0  0  0
   -3.5871   -0.4378    1.4263 O   0  0  0  0  0  0  0  0  0  0  0  0
   -0.8393    3.4086    1.0180 O   0  0  0  0  0  0  0  0  0  0  0  0
    1.4828   -0.2066   -0.8640 N   0  0  0  0  0  0  0  0  0  0  0  0
   -3.3649   -2.8407   -1.3231 N   0  0  0  0  0  0  0  0  0  0  0  0
   -2.5543    2.1630    1.9697 N   0  0  0  0  0  0  0  0  0  0  0  0
   -5.0073   -3.6036    0.2668 N   0  0  0  0  0  0  0  0  0  0  0  0
   -5.4679   -2.3278    2.2134 N   0  0  0  0  0  0  0  0  0  0  0  0
    7.7376   -0.8224    0.8372 C   0  0  0  0  0  0  0  0  0  0  0  0
    8.2590   -0.1733    2.0977 C   0  0  0  0  0  0  0  0  0  0  0  0
    7.8500   -1.6128    2.1198 C   0  0  0  0  0  0  0  0  0  0  0  0
    6.3801   -0.4453    0.2928 C   0  0  0  0  0  0  0  0  0  0  0  0
    5.4242   -1.4333    0.0568 C   0  0  0  0  0  0  0  0  0  0  0  0
    6.0828    0.8910    0.0248 C   0  0  0  0  0  0  0  0  0  0  0  0
    4.1710   -1.0851   -0.4470 C   0  0  0  0  0  0  0  0  0  0  0  0
    4.8296    1.2391   -0.4790 C   0  0  0  0  0  0  0  0  0  0  0  0
    3.8738    0.2511   -0.7149 C   0  0  0  0  0  0  0  0  0  0  0  0
    2.5392    0.6264   -1.2513 C   0  0  0  0  0  0  0  0  0  0  0  0
    0.1296   -0.0861   -1.1912 C   0  0  0  0  0  0  0  0  0  0  0  0
   -0.8128   -0.9867   -0.6949 C   0  0  0  0  0  0  0  0  0  0  0  0
   -2.1583   -0.8465   -1.0352 C   0  0  0  0  0  0  0  0  0  0  0  0
   -0.2735    0.9548   -2.0277 C   0  0  0  0  0  0  0  0  0  0  0  0
   -3.1571   -1.7646   -0.5361 C   0  0  0  0  0  0  0  0  0  0  0  0
   -2.5613    0.1945   -1.8716 C   0  0  0  0  0  0  0  0  0  0  0  0
   -0.3718   -2.1015    0.2039 C   0  0  0  0  0  0  0  0  0  0  0  0
   -1.6189    1.0951   -2.3678 C   0  0  0  0  0  0  0  0  0  0  0  0
   -3.8262   -1.5416    0.6501 C   0  0  0  0  0  0  0  0  0  0  0  0
   -4.3761    0.7148    1.1614 C   0  0  0  0  0  0  0  0  0  0  0  0
   -3.9710    1.8312    2.1065 C   0  0  0  0  0  0  0  0  0  0  0  0
   -4.7492   -2.5041    1.0050 C   0  0  0  0  0  0  0  0  0  0  0  0
   -4.2898   -3.7072   -0.8681 C   0  0  0  0  0  0  0  0  0  0  0  0
   -1.6529    1.4489    2.8648 C   0  0  0  0  0  0  0  0  0  0  0  0
   -2.0345    3.1186    1.0920 C   0  0  0  0  0  0  0  0  0  0  0  0
   -3.0219    3.8285    0.2298 C   0  0  0  0  0  0  0  0  0  0  0  0
   -2.7851    5.0832   -0.1672 C   0  0  0  0  0  0  0  0  0  0  0  0
    8.4876   -1.0470    0.0814 H   0  0  0  0  0  0  0  0  0  0  0  0
    7.6310    0.5314    2.6296 H   0  0  0  0  0  0  0  0  0  0  0  0
    9.3177    0.0517    2.1459 H   0  0  0  0  0  0  0  0  0  0  0  0
    8.6329   -2.3592    2.1828 H   0  0  0  0  0  0  0  0  0  0  0  0
    6.9497   -1.8669    2.6661 H   0  0  0  0  0  0  0  0  0  0  0  0
    5.6442   -2.4783    0.2580 H   0  0  0  0  0  0  0  0  0  0  0  0
    6.8198    1.6698    0.2018 H   0  0  0  0  0  0  0  0  0  0  0  0
    4.6161    2.2863   -0.6768 H   0  0  0  0  0  0  0  0  0  0  0  0
    1.7158   -0.9763   -0.2445 H   0  0  0  0  0  0  0  0  0  0  0  0
    0.3869    1.6918   -2.4598 H   0  0  0  0  0  0  0  0  0  0  0  0
   -3.6043    0.3165   -2.1540 H   0  0  0  0  0  0  0  0  0  0  0  0
    0.0599   -1.6925    1.1244 H   0  0  0  0  0  0  0  0  0  0  0  0
   -1.1657   -2.7856    0.5118 H   0  0  0  0  0  0  0  0  0  0  0  0
    0.3776   -2.7208   -0.3022 H   0  0  0  0  0  0  0  0  0  0  0  0
   -4.2524    1.0290    0.1223 H   0  0  0  0  0  0  0  0  0  0  0  0
   -5.4355    0.4799    1.3183 H   0  0  0  0  0  0  0  0  0  0  0  0
   -4.5880    2.7177    1.9327 H   0  0  0  0  0  0  0  0  0  0  0  0
   -4.1470    1.5238    3.1445 H   0  0  0  0  0  0  0  0  0  0  0  0
   -4.4767   -4.5808   -1.4805 H   0  0  0  0  0  0  0  0  0  0  0  0
   -1.9576    1.6354    3.8990 H   0  0  0  0  0  0  0  0  0  0  0  0
   -0.6193    1.7850    2.7457 H   0  0  0  0  0  0  0  0  0  0  0  0
   -1.6857    0.3774    2.6607 H   0  0  0  0  0  0  0  0  0  0  0  0
   -5.0343   -1.7935    2.9563 H   0  0  0  0  0  0  0  0  0  0  0  0
   -6.1348   -3.0475    2.4628 H   0  0  0  0  0  0  0  0  0  0  0  0
   -3.9248    3.3274   -0.0933 H   0  0  0  0  0  0  0  0  0  0  0  0
   -3.4996    5.5961   -0.8024 H   0  0  0  0  0  0  0  0  0  0  0  0
   -1.8941    5.6272    0.1261 H   0  0  0  0  0  0  0  0  0  0  0  0
  1 17  1  0  0  0  0
  2 28  1  0  0  0  0
  3 20  2  0  0  0  0
  4 29  1  0  0  0  0
  4 30  1  0  0  0  0
  5 35  2  0  0  0  0
  6 20  1  0  0  0  0
  6 21  1  0  0  0  0
  6 46  1  0  0  0  0
  7 25  1  0  0  0  0
  7 33  2  0  0  0  0
  8 31  1  0  0  0  0
  8 34  1  0  0  0  0
  8 35  1  0  0  0  0
  9 32  2  0  0  0  0
  9 33  1  0  0  0  0
 10 32  1  0  0  0  0
 10 60  1  0  0  0  0
 10 61  1  0  0  0  0
 11 12  1  0  0  0  0
 11 13  1  0  0  0  0
 11 14  1  0  0  0  0
 11 38  1  0  0  0  0
 12 13  1  0  0  0  0
 12 39  1  0  0  0  0
 12 40  1  0  0  0  0
 13 41  1  0  0  0  0
 13 42  1  0  0  0  0
 14 15  2  0  0  0  0
 14 16  1  0  0  0  0
 15 17  1  0  0  0  0
 15 43  1  0  0  0  0
 16 18  2  0  0  0  0
 16 44  1  0  0  0  0
 17 19  2  0  0  0  0
 18 19  1  0  0  0  0
 18 45  1  0  0  0  0
 19 20  1  0  0  0  0
 21 22  1  0  0  0  0
 21 24  2  0  0  0  0
 22 23  2  0  0  0  0
 22 27  1  0  0  0  0
 23 25  1  0  0  0  0
 23 26  1  0  0  0  0
 24 28  1  0  0  0  0
 24 47  1  0  0  0  0
 25 29  2  0  0  0  0
 26 28  2  0  0  0  0
 26 48  1  0  0  0  0
 27 49  1  0  0  0  0
 27 50  1  0  0  0  0
 27 51  1  0  0  0  0
 29 32  1  0  0  0  0
 30 31  1  0  0  0  0
 30 52  1  0  0  0  0
 30 53  1  0  0  0  0
 31 54  1  0  0  0  0
 31 55  1  0  0  0  0
 33 56  1  0  0  0  0
 34 57  1  0  0  0  0
 34 58  1  0  0  0  0
 34 59  1  0  0  0  0
 35 36  1  0  0  0  0
 36 37  2  0  0  0  0
 36 62  1  0  0  0  0
 37 63  1  0  0  0  0
 37 64  1  0  0  0  0
M  END
> <PUBCHEM_COMPOUND_CID>
118107483

> <PUBCHEM_CONFORMER_RMSD>
1.2

> <PUBCHEM_CONFORMER_DIVERSEORDER>
2
34
48
9
17
52
31
41
38
51
22
50
23
28
6
29
26
43
21
30
42
3
44
25
40
10
36
47
8
15
20
24
16
37
32
35
12
18
39
19
46
7
49
33
13
4
1
45
27
53
14
5
11

> <PUBCHEM_MMFF94_PARTIAL_CHARGES>
53
1 -0.19
10 -0.9
11 -0.07
12 -0.2
13 -0.2
14 -0.03
15 -0.15
16 -0.15
17 0.19
18 -0.15
19 0.09
2 -0.19
20 0.54
21 0.12
22 -0.14
24 -0.15
25 0.31
26 -0.15
27 0.14
28 0.19
29 0.08
3 -0.57
30 0.28
31 0.3
32 0.41
33 0.47
34 0.3
35 0.62
36 -0.14
37 -0.3
38 0.1
39 0.1
4 -0.36
40 0.1
41 0.1
42 0.1
43 0.15
44 0.15
45 0.15
46 0.37
47 0.15
48 0.15
5 -0.57
56 0.15
6 -0.55
60 0.4
61 0.4
62 0.15
63 0.15
64 0.15
7 -0.62
8 -0.66
9 -0.62

> <PUBCHEM_EFFECTIVE_ROTOR_COUNT>
11.6

> <PUBCHEM_PHARMACOPHORE_FEATURES>
11
1 10 donor
1 3 acceptor
1 37 hydrophobe
1 4 acceptor
1 5 acceptor
1 6 donor
3 7 9 33 cation
3 9 10 32 cation
6 14 15 16 17 18 19 rings
6 21 22 23 24 26 28 rings
6 7 9 25 29 32 33 rings

> <PUBCHEM_HEAVY_ATOM_COUNT>
37

> <PUBCHEM_ATOM_DEF_STEREO_COUNT>
0

> <PUBCHEM_ATOM_UDEF_STEREO_COUNT>
0

> <PUBCHEM_BOND_DEF_STEREO_COUNT>
0

> <PUBCHEM_BOND_UDEF_STEREO_COUNT>
0

> <PUBCHEM_ISOTOPIC_ATOM_COUNT>
0

> <PUBCHEM_COMPONENT_COUNT>
1

> <PUBCHEM_CACTVS_TAUTO_COUNT>
994

> <PUBCHEM_CONFORMER_ID>
070A2D5B00000002

> <PUBCHEM_MMFF94_ENERGY>
129.994

> <PUBCHEM_FEATURE_SELFOVERLAP>
55.957

> <PUBCHEM_SHAPE_FINGERPRINT>
10554248 39 13470688128002887820
10674148 151 15719384058415873245
10930396 42 18059853965827376387
11200772 48 10737280251491297802
11456790 92 18196392505893622339
12655364 131 17691389820630451018
13583140 156 17060339604208091567
13782708 43 17530956974530302986
14395042 24 18270698545190530939
14856354 85 17560238162377462494
14950920 106 18342172323574690062
15326921 28 18050278172637398568
15513586 35 16413211204157472530
15950262 2 14618012993416604457
16067689 68 18191009116321943938
16114785 44 17703505489949463909
16992779 147 16400307984166715561
17780758 139 18411980260576364638
18603816 31 15430039846340484145
22956985 138 17551784151010935179
23522609 53 17897192215751800012
23559900 14 13190911990075418902
3504750 166 18343016696791966550
392239 28 18200046164844634091
469060 322 17894920632611496541
484985 159 18260823774493346013
4938544 92 18340486660406346212
5104073 3 18334002884115361456

> <PUBCHEM_SHAPE_MULTIPOLES>
704.38
17.48
4.65
2.53
43.12
2.91
0.17
-9.13
11.12
-9.88
0.6
-1.22
0.95
-1.27

> <PUBCHEM_SHAPE_SELFOVERLAP>
1519.582

> <PUBCHEM_SHAPE_VOLUME>
388

> <PUBCHEM_COORDINATE_TYPE>
2
5
10

$$$$
51039030
  -OEChem-11282412143D

 73 77  0     1  0  0  0  0  0999 V2000
   -3.4135    2.2501    1.8771 Cl  0  0  0  0  0  0  0  0  0  0  0  0
    1.3722   -1.3958   -0.8065 O   0  0  0  0  0  0  0  0  0  0  0  0
    5.0893    0.5359    2.0968 O   0  0  0  0  0  0  0  0  0  0  0  0
   -4.8248    0.9360   -0.4302 O   0  0  0  0  0  0  0  0  0  0  0  0
    2.3751   -6.3228   -1.4934 N   0  0  2  0  0  0  0  0  0  0  0  0
    3.1846   -0.9077    0.6048 N   0  0  0  0  0  0  0  0  0  0  0  0
    0.3116    2.7023   -1.5969 N   0  0  0  0  0  0  0  0  0  0  0  0
    3.2333    4.6763    0.6874 N   0  0  0  0  0  0  0  0  0  0  0  0
   -0.3693    6.2033   -2.0993 N   0  0  0  0  0  0  0  0  0  0  0  0
   -7.3785   -1.1035   -0.2048 N   0  0  0  0  0  0  0  0  0  0  0  0
    2.1547   -5.5930   -0.2340 C   0  0  2  0  0  0  0  0  0  0  0  0
    0.9522   -6.3039    0.4058 C   0  0  0  0  0  0  0  0  0  0  0  0
    0.7257   -7.5564   -0.4311 C   0  0  0  0  0  0  0  0  0  0  0  0
    2.0103   -7.7140   -1.2180 C   0  0  0  0  0  0  0  0  0  0  0  0
    1.8913   -4.1332   -0.4261 C   0  0  0  0  0  0  0  0  0  0  0  0
    3.7445   -6.2177   -1.9858 C   0  0  0  0  0  0  0  0  0  0  0  0
    2.6236   -3.1705    0.1506 C   0  0  0  0  0  0  0  0  0  0  0  0
    2.3045   -1.7309   -0.0854 C   0  0  0  0  0  0  0  0  0  0  0  0
    3.1981    0.5087    0.6269 C   0  0  0  0  0  0  0  0  0  0  0  0
    2.2465    2.6217   -0.0951 C   0  0  0  0  0  0  0  0  0  0  0  0
    2.2487    1.2165   -0.1047 C   0  0  0  0  0  0  0  0  0  0  0  0
    4.1468    1.2003    1.3698 C   0  0  0  0  0  0  0  0  0  0  0  0
    3.2069    3.3305    0.6566 C   0  0  0  0  0  0  0  0  0  0  0  0
    1.3026    3.3590   -0.8224 C   0  0  0  0  0  0  0  0  0  0  0  0
    4.1444    2.5973    1.3792 C   0  0  0  0  0  0  0  0  0  0  0  0
    1.3272    4.7459   -0.7928 C   0  0  0  0  0  0  0  0  0  0  0  0
    2.3047    5.3506   -0.0290 C   0  0  0  0  0  0  0  0  0  0  0  0
   -0.9844    2.2590   -1.2949 C   0  0  0  0  0  0  0  0  0  0  0  0
    6.4542    0.7823    1.7655 C   0  0  0  0  0  0  0  0  0  0  0  0
   -1.5054    2.4467   -0.0146 C   0  0  0  0  0  0  0  0  0  0  0  0
   -1.7523    1.6304   -2.2752 C   0  0  0  0  0  0  0  0  0  0  0  0
   -3.5624    1.3777   -0.6950 C   0  0  0  0  0  0  0  0  0  0  0  0
   -2.7945    2.0061    0.2853 C   0  0  0  0  0  0  0  0  0  0  0  0
   -3.0413    1.1897   -1.9751 C   0  0  0  0  0  0  0  0  0  0  0  0
    0.3909    5.5503   -1.5139 C   0  0  0  0  0  0  0  0  0  0  0  0
    7.2694   -0.4532    2.0826 C   0  0  0  0  0  0  0  0  0  0  0  0
   -5.0695   -0.4592   -0.5934 C   0  0  0  0  0  0  0  0  0  0  0  0
   -6.1639   -0.8777    0.3440 C   0  0  0  0  0  0  0  0  0  0  0  0
   -5.8861   -1.0110    1.6948 C   0  0  0  0  0  0  0  0  0  0  0  0
   -6.9216   -1.4014    2.5366 C   0  0  0  0  0  0  0  0  0  0  0  0
   -8.3604   -1.4813    0.6443 C   0  0  0  0  0  0  0  0  0  0  0  0
   -8.1854   -1.6431    2.0093 C   0  0  0  0  0  0  0  0  0  0  0  0
    3.0147   -5.7405    0.4356 H   0  0  0  0  0  0  0  0  0  0  0  0
    1.1907   -6.5831    1.4393 H   0  0  0  0  0  0  0  0  0  0  0  0
    0.0401   -5.6964    0.4312 H   0  0  0  0  0  0  0  0  0  0  0  0
   -0.1206   -7.3982   -1.1111 H   0  0  0  0  0  0  0  0  0  0  0  0
    0.5036   -8.4318    0.1865 H   0  0  0  0  0  0  0  0  0  0  0  0
    1.8524   -8.2888   -2.1359 H   0  0  0  0  0  0  0  0  0  0  0  0
    2.7675   -8.2219   -0.6069 H   0  0  0  0  0  0  0  0  0  0  0  0
    1.0580   -3.8708   -1.0745 H   0  0  0  0  0  0  0  0  0  0  0  0
    3.9958   -5.1761   -2.2126 H   0  0  0  0  0  0  0  0  0  0  0  0
    3.8566   -6.7797   -2.9196 H   0  0  0  0  0  0  0  0  0  0  0  0
    4.4779   -6.5992   -1.2663 H   0  0  0  0  0  0  0  0  0  0  0  0
    3.4582   -3.4205    0.7974 H   0  0  0  0  0  0  0  0  0  0  0  0
    3.9133   -1.3436    1.1664 H   0  0  0  0  0  0  0  0  0  0  0  0
    1.4979    0.7218   -0.7005 H   0  0  0  0  0  0  0  0  0  0  0  0
    4.8859    3.1311    1.9718 H   0  0  0  0  0  0  0  0  0  0  0  0
    0.6153    2.5198   -2.5491 H   0  0  0  0  0  0  0  0  0  0  0  0
    2.3854    6.4317    0.0419 H   0  0  0  0  0  0  0  0  0  0  0  0
    6.8176    1.6289    2.3581 H   0  0  0  0  0  0  0  0  0  0  0  0
    6.5635    1.0224    0.7005 H   0  0  0  0  0  0  0  0  0  0  0  0
   -0.9161    2.9347    0.7582 H   0  0  0  0  0  0  0  0  0  0  0  0
   -1.3593    1.4793   -3.2774 H   0  0  0  0  0  0  0  0  0  0  0  0
   -3.6297    0.7101   -2.7525 H   0  0  0  0  0  0  0  0  0  0  0  0
    8.3262   -0.2951    1.8500 H   0  0  0  0  0  0  0  0  0  0  0  0
    6.9056   -1.3120    1.5088 H   0  0  0  0  0  0  0  0  0  0  0  0
    7.1761   -0.7157    3.1416 H   0  0  0  0  0  0  0  0  0  0  0  0
   -4.1690   -1.0544   -0.3907 H   0  0  0  0  0  0  0  0  0  0  0  0
   -5.3744   -0.6462   -1.6298 H   0  0  0  0  0  0  0  0  0  0  0  0
   -4.8962   -0.8217    2.0956 H   0  0  0  0  0  0  0  0  0  0  0  0
   -6.7441   -1.5175    3.6015 H   0  0  0  0  0  0  0  0  0  0  0  0
   -9.3268   -1.6573    0.1836 H   0  0  0  0  0  0  0  0  0  0  0  0
   -9.0073   -1.9484    2.6466 H   0  0  0  0  0  0  0  0  0  0  0  0
  1 33  1  0  0  0  0
  2 18  2  0  0  0  0
  3 22  1  0  0  0  0
  3 29  1  0  0  0  0
  4 32  1  0  0  0  0
  4 37  1  0  0  0  0
  5 11  1  0  0  0  0
  5 14  1  0  0  0  0
  5 16  1  0  0  0  0
  6 18  1  0  0  0  0
  6 19  1  0  0  0  0
  6 55  1  0  0  0  0
  7 24  1  0  0  0  0
  7 28  1  0  0  0  0
  7 58  1  0  0  0  0
  8 23  1  0  0  0  0
  8 27  2  0  0  0  0
  9 35  3  0  0  0  0
 10 38  1  0  0  0  0
 10 41  2  0  0  0  0
 11 12  1  0  0  0  0
 11 15  1  0  0  0  0
 11 43  1  0  0  0  0
 12 13  1  0  0  0  0
 12 44  1  0  0  0  0
 12 45  1  0  0  0  0
 13 14  1  0  0  0  0
 13 46  1  0  0  0  0
 13 47  1  0  0  0  0
 14 48  1  0  0  0  0
 14 49  1  0  0  0  0
 15 17  2  0  0  0  0
 15 50  1  0  0  0  0
 16 51  1  0  0  0  0
 16 52  1  0  0  0  0
 16 53  1  0  0  0  0
 17 18  1  0  0  0  0
 17 54  1  0  0  0  0
 19 21  1  0  0  0  0
 19 22  2  0  0  0  0
 20 21  2  0  0  0  0
 20 23  1  0  0  0  0
 20 24  1  0  0  0  0
 21 56  1  0  0  0  0
 22 25  1  0  0  0  0
 23 25  2  0  0  0  0
 24 26  2  0  0  0  0
 25 57  1  0  0  0  0
 26 27  1  0  0  0  0
 26 35  1  0  0  0  0
 27 59  1  0  0  0  0
 28 30  2  0  0  0  0
 28 31  1  0  0  0  0
 29 36  1  0  0  0  0
 29 60  1  0  0  0  0
 29 61  1  0  0  0  0
 30 33  1  0  0  0  0
 30 62  1  0  0  0  0
 31 34  2  0  0  0  0
 31 63  1  0  0  0  0
 32 33  2  0  0  0  0
 32 34  1  0  0  0  0
 34 64  1  0  0  0  0
 36 65  1  0  0  0  0
 36 66  1  0  0  0  0
 36 67  1  0  0  0  0
 37 38  1  0  0  0  0
 37 68  1  0  0  0  0
 37 69  1  0  0  0  0
 38 39  2  0  0  0  0
 39 40  1  0  0  0  0
 39 70  1  0  0  0  0
 40 42  2  0  0  0  0
 40 71  1  0  0  0  0
 41 42  1  0  0  0  0
 41 72  1  0  0  0  0
 42 73  1  0  0  0  0
M  END
> <PUBCHEM_COMPOUND_CID>
51039030

> <PUBCHEM_CONFORMER_RMSD>
1.2

> <PUBCHEM_CONFORMER_DIVERSEORDER>
1
39
11
27
8
30
7
3
32
19
15
61
2
44
53
22
18
33
5
16
49
48
25
26
58
17
62
10
57
46
55
38
6
36
23
31
47
52
28
59
9
35
54
51
60
42
40
21
20
45
56
43
50
24
41
37
34
14
4
29
13
12

> <PUBCHEM_MMFF94_PARTIAL_CHARGES>
52
1 -0.18
10 -0.62
11 0.41
14 0.27
15 -0.29
16 0.27
17 -0.14
18 0.62
19 0.12
2 -0.57
21 -0.15
22 0.08
23 0.31
24 0.1
25 -0.15
26 0.07
27 0.16
28 0.1
29 0.28
3 -0.36
30 -0.15
31 -0.15
32 0.08
33 0.18
34 -0.15
35 0.48
37 0.42
38 0.17
39 -0.15
4 -0.36
40 -0.15
41 0.16
42 -0.15
5 -0.81
50 0.15
54 0.15
55 0.37
56 0.15
57 0.15
58 0.4
59 0.15
6 -0.55
62 0.15
63 0.15
64 0.15
7 -0.6
70 0.15
71 0.15
72 0.15
73 0.15
8 -0.62
9 -0.56

> <PUBCHEM_EFFECTIVE_ROTOR_COUNT>
12

> <PUBCHEM_PHARMACOPHORE_FEATURES>
15
1 10 acceptor
1 2 acceptor
1 3 acceptor
1 4 acceptor
1 5 cation
1 6 donor
1 7 cation
1 7 donor
1 8 acceptor
1 9 acceptor
5 5 11 12 13 14 rings
6 10 38 39 40 41 42 rings
6 19 20 21 22 23 25 rings
6 28 30 31 32 33 34 rings
6 8 20 23 24 26 27 rings

> <PUBCHEM_HEAVY_ATOM_COUNT>
42

> <PUBCHEM_ATOM_DEF_STEREO_COUNT>
1

> <PUBCHEM_ATOM_UDEF_STEREO_COUNT>
0

> <PUBCHEM_BOND_DEF_STEREO_COUNT>
1

> <PUBCHEM_BOND_UDEF_STEREO_COUNT>
0

> <PUBCHEM_ISOTOPIC_ATOM_COUNT>
0

> <PUBCHEM_COMPONENT_COUNT>
1

> <PUBCHEM_CACTVS_TAUTO_COUNT>
6

> <PUBCHEM_CONFORMER_ID>
030ACB3600000001

> <PUBCHEM_MMFF94_ENERGY>
146.0168

> <PUBCHEM_FEATURE_SELFOVERLAP>
76.157

> <PUBCHEM_SHAPE_FINGERPRINT>
14004852 214 17619925284567896043
15419008 42 17969479595066834341
19301676 85 17761203320753438733
19319366 153 18200875205433896525
21133410 38 18127412474523582799
24204213 200 17978534219250483787
3525247 154 18048329851250294882
404807 14 17977952285577913667
4461854 278 18267293408016018407

> <PUBCHEM_SHAPE_MULTIPOLES>
818.72
16.64
13.15
2.17
34.1
23.87
0.27
7.9
13.91
-17.55
-8.15
0.42
-0.46
4.85

> <PUBCHEM_SHAPE_SELFOVERLAP>
1762.788

> <PUBCHEM_SHAPE_VOLUME>
451.1

> <PUBCHEM_COORDINATE_TYPE>
2
5
10

$$$$
126565
  -OEChem-11282412143D

 54 61  0     1  0  0  0  0  0999 V2000
   -1.0811   -1.9279   -1.6654 O   0  0  0  0  0  0  0  0  0  0  0  0
   -1.6021   -1.6332    1.6883 O   0  0  0  0  0  0  0  0  0  0  0  0
   -2.9549   -3.9411    2.0445 O   0  0  0  0  0  0  0  0  0  0  0  0
    4.2866    2.5882    0.3557 O   0  0  0  0  0  0  0  0  0  0  0  0
   -1.7272   -0.0795   -0.4650 N   0  0  0  0  0  0  0  0  0  0  0  0
    0.8468   -1.5982   -0.4459 N   0  0  0  0  0  0  0  0  0  0  0  0
    2.5301    4.1355    0.3828 N   0  0  0  0  0  0  0  0  0  0  0  0
   -2.0919   -1.4623   -0.7419 C   0  0  2  0  0  0  0  0  0  0  0  0
   -1.9942   -2.3752    0.5264 C   0  0  1  0  0  0  0  0  0  0  0  0
   -0.0953   -2.5894   -0.8992 C   0  0  1  0  0  0  0  0  0  0  0  0
   -0.8453   -3.3200    0.1958 C   0  0  0  0  0  0  0  0  0  0  0  0
   -0.4770    0.4858   -0.3245 C   0  0  0  0  0  0  0  0  0  0  0  0
    0.7507   -0.2421   -0.2988 C   0  0  0  0  0  0  0  0  0  0  0  0
   -0.3359    1.9064   -0.1213 C   0  0  0  0  0  0  0  0  0  0  0  0
   -3.3654   -1.6501   -1.5810 C   0  0  0  0  0  0  0  0  0  0  0  0
   -3.2545   -3.1467    0.9150 C   0  0  0  0  0  0  0  0  0  0  0  0
    1.9407    0.5535   -0.0657 C   0  0  0  0  0  0  0  0  0  0  0  0
   -2.5535    1.0246   -0.2229 C   0  0  0  0  0  0  0  0  0  0  0  0
    2.2068   -1.8163   -0.2356 C   0  0  0  0  0  0  0  0  0  0  0  0
   -1.7630    2.2115   -0.0974 C   0  0  0  0  0  0  0  0  0  0  0  0
    0.8219    2.6626    0.0380 C   0  0  0  0  0  0  0  0  0  0  0  0
    2.0057    1.9384    0.0696 C   0  0  0  0  0  0  0  0  0  0  0  0
    2.8818   -0.5750   -0.0259 C   0  0  0  0  0  0  0  0  0  0  0  0
    1.0882    4.1154    0.2493 C   0  0  0  0  0  0  0  0  0  0  0  0
   -3.9543    1.1095   -0.0821 C   0  0  0  0  0  0  0  0  0  0  0  0
    3.1073    2.8732    0.2845 C   0  0  0  0  0  0  0  0  0  0  0  0
    2.9087   -3.0390   -0.2290 C   0  0  0  0  0  0  0  0  0  0  0  0
   -2.4283    3.4500    0.0907 C   0  0  0  0  0  0  0  0  0  0  0  0
    4.2825   -0.6305    0.1889 C   0  0  0  0  0  0  0  0  0  0  0  0
   -4.5684    2.3502    0.1103 C   0  0  0  0  0  0  0  0  0  0  0  0
   -3.8178    3.5102    0.1824 C   0  0  0  0  0  0  0  0  0  0  0  0
    4.2860   -3.0386   -0.0133 C   0  0  0  0  0  0  0  0  0  0  0  0
    4.9664   -1.8500    0.1925 C   0  0  0  0  0  0  0  0  0  0  0  0
    0.4358   -3.2856   -1.5558 H   0  0  0  0  0  0  0  0  0  0  0  0
   -1.2386   -4.2516   -0.2304 H   0  0  0  0  0  0  0  0  0  0  0  0
   -0.2088   -3.5744    1.0500 H   0  0  0  0  0  0  0  0  0  0  0  0
   -4.2861   -1.5540   -1.0048 H   0  0  0  0  0  0  0  0  0  0  0  0
   -3.4007   -0.9329   -2.4101 H   0  0  0  0  0  0  0  0  0  0  0  0
   -3.3816   -2.6454   -2.0433 H   0  0  0  0  0  0  0  0  0  0  0  0
   -3.6036   -3.8070    0.1160 H   0  0  0  0  0  0  0  0  0  0  0  0
   -4.0664   -2.4672    1.1945 H   0  0  0  0  0  0  0  0  0  0  0  0
   -0.6522   -1.4401    1.6517 H   0  0  0  0  0  0  0  0  0  0  0  0
    0.8007    4.7217   -0.6128 H   0  0  0  0  0  0  0  0  0  0  0  0
    0.6418    4.4920    1.1727 H   0  0  0  0  0  0  0  0  0  0  0  0
   -4.5847    0.2301   -0.1028 H   0  0  0  0  0  0  0  0  0  0  0  0
    2.3913   -3.9812   -0.3858 H   0  0  0  0  0  0  0  0  0  0  0  0
   -1.8553    4.3691    0.1858 H   0  0  0  0  0  0  0  0  0  0  0  0
    4.8555    0.2737    0.3606 H   0  0  0  0  0  0  0  0  0  0  0  0
    3.0670    4.9836    0.5342 H   0  0  0  0  0  0  0  0  0  0  0  0
   -2.6569   -3.3464    2.7539 H   0  0  0  0  0  0  0  0  0  0  0  0
   -5.6497    2.4011    0.2086 H   0  0  0  0  0  0  0  0  0  0  0  0
   -4.3083    4.4676    0.3331 H   0  0  0  0  0  0  0  0  0  0  0  0
    4.8284   -3.9802   -0.0065 H   0  0  0  0  0  0  0  0  0  0  0  0
    6.0399   -1.8627    0.3606 H   0  0  0  0  0  0  0  0  0  0  0  0
  1  8  1  0  0  0  0
  1 10  1  0  0  0  0
  2  9  1  0  0  0  0
  2 42  1  0  0  0  0
  3 16  1  0  0  0  0
  3 50  1  0  0  0  0
  4 26  2  0  0  0  0
  5  8  1  0  0  0  0
  5 12  1  0  0  0  0
  5 18  1  0  0  0  0
  6 10  1  0  0  0  0
  6 13  1  0  0  0  0
  6 19  1  0  0  0  0
  7 24  1  0  0  0  0
  7 26  1  0  0  0  0
  7 49  1  0  0  0  0
  8  9  1  0  0  0  0
  8 15  1  0  0  0  0
  9 11  1  0  0  0  0
  9 16  1  0  0  0  0
 10 11  1  0  0  0  0
 10 34  1  0  0  0  0
 11 35  1  0  0  0  0
 11 36  1  0  0  0  0
 12 13  2  0  0  0  0
 12 14  1  0  0  0  0
 13 17  1  0  0  0  0
 14 20  1  0  0  0  0
 14 21  2  0  0  0  0
 15 37  1  0  0  0  0
 15 38  1  0  0  0  0
 15 39  1  0  0  0  0
 16 40  1  0  0  0  0
 16 41  1  0  0  0  0
 17 22  2  0  0  0  0
 17 23  1  0  0  0  0
 18 20  1  0  0  0  0
 18 25  2  0  0  0  0
 19 23  1  0  0  0  0
 19 27  2  0  0  0  0
 20 28  2  0  0  0  0
 21 22  1  0  0  0  0
 21 24  1  0  0  0  0
 22 26  1  0  0  0  0
 23 29  2  0  0  0  0
 24 43  1  0  0  0  0
 24 44  1  0  0  0  0
 25 30  1  0  0  0  0
 25 45  1  0  0  0  0
 27 32  1  0  0  0  0
 27 46  1  0  0  0  0
 28 31  1  0  0  0  0
 28 47  1  0  0  0  0
 29 33  1  0  0  0  0
 29 48  1  0  0  0  0
 30 31  2  0  0  0  0
 30 51  1  0  0  0  0
 31 52  1  0  0  0  0
 32 33  2  0  0  0  0
 32 53  1  0  0  0  0
 33 54  1  0  0  0  0
M  END
> <PUBCHEM_COMPOUND_CID>
126565

> <PUBCHEM_CONFORMER_RMSD>
0.8

> <PUBCHEM_CONFORMER_DIVERSEORDER>
1

> <PUBCHEM_MMFF94_PARTIAL_CHARGES>
40
1 -0.56
10 0.54
12 -0.05
13 -0.05
14 -0.01
16 0.28
17 -0.01
18 -0.15
19 -0.15
2 -0.68
21 -0.14
22 0.09
24 0.44
25 -0.15
26 0.54
27 -0.15
28 -0.15
29 -0.15
3 -0.68
30 -0.15
31 -0.15
32 -0.15
33 -0.15
4 -0.57
42 0.4
45 0.15
46 0.15
47 0.15
48 0.15
49 0.37
5 -0.04
50 0.4
51 0.15
52 0.15
53 0.15
54 0.15
6 -0.04
7 -0.73
8 0.54
9 0.28

> <PUBCHEM_EFFECTIVE_ROTOR_COUNT>
2

> <PUBCHEM_PHARMACOPHORE_FEATURES>
17
1 1 acceptor
1 2 acceptor
1 2 donor
1 3 acceptor
1 3 donor
1 4 acceptor
1 5 cation
1 6 cation
1 7 donor
5 1 8 9 10 11 rings
5 5 12 14 18 20 rings
5 6 13 17 19 23 rings
5 7 21 22 24 26 rings
6 12 13 14 17 21 22 rings
6 18 20 25 28 30 31 rings
6 19 23 27 29 32 33 rings
7 1 5 6 8 10 12 13 rings

> <PUBCHEM_HEAVY_ATOM_COUNT>
33

> <PUBCHEM_ATOM_DEF_STEREO_COUNT>
3

> <PUBCHEM_ATOM_UDEF_STEREO_COUNT>
0

> <PUBCHEM_BOND_DEF_STEREO_COUNT>
0

> <PUBCHEM_BOND_UDEF_STEREO_COUNT>
0

> <PUBCHEM_ISOTOPIC_ATOM_COUNT>
0

> <PUBCHEM_COMPONENT_COUNT>
1

> <PUBCHEM_CACTVS_TAUTO_COUNT>
2

> <PUBCHEM_CONFORMER_ID>
0001EE6500000001

> <PUBCHEM_MMFF94_ENERGY>
148.26

> <PUBCHEM_FEATURE_SELFOVERLAP>
88.047

> <PUBCHEM_SHAPE_FINGERPRINT>
10006869 2 18269282429595024027
10190108 129 17686375300066776769
10906281 52 18054244136900506484
10967382 1 18052536569335409276
1100329 8 18339359643602200300
11227688 84 17836363027234512902
11513181 2 18131348644102888094
11534866 41 17246145950871798953
11578080 2 17202174452454512506
11607047 403 16192209354453831041
12422481 6 18267889292596525811
12553582 1 18195232322691931356
12788726 201 18195508502100807049
13140716 1 18411140225055134936
13402501 40 18051693248238213492
14020679 6 18188217498188110707
14223421 5 18265899248752103140
14466204 15 17906732505603501697
14725015 67 17617649965443764754
14790565 3 17980204089133529044
14955137 171 18194975032174910933
15420108 30 17266650661128360965
15439362 3 18410566258701770324
15927050 60 18342454893963746908
16112460 7 18271819977572217385
19319366 153 17750806432911252322
19591789 44 17691967059992319820
20028762 73 18129372727561281135
20642791 178 18047209465717327132
20739085 24 17470741364682252745
21197605 99 18341343253870170067
21796203 349 17835279716333965416
22113638 7 18197491822944446948
23558518 356 18261675973166272089
23559900 14 18341322332535987920
283562 15 17766274654010685881
3178227 256 18122075208732413385
335352 9 18196650700986584140
3383291 50 17470728806320030530
34934 24 17620748393580040997
350125 39 18412263921981722293
392239 28 17618508683608339291
6004065 56 18197202664667122805
70251023 43 18198325429084673135
9709674 26 18410852195974141917
9981440 41 17979617250270989800

> <PUBCHEM_SHAPE_MULTIPOLES>
640.7
8.06
6.21
1.02
2.84
1.59
0.11
0.51
0.48
-0.82
1.54
-0.68
-1.08
0.72

> <PUBCHEM_SHAPE_SELFOVERLAP>
1501.603

> <PUBCHEM_SHAPE_VOLUME>
321.7

> <PUBCHEM_COORDINATE_TYPE>
2
5
10

$$$$
44231134
  -OEChem-11282412143D

 44 48  0     0  0  0  0  0  0999 V2000
    4.5386   -1.3442    0.1605 S   0  0  0  0  0  0  0  0  0  0  0  0
    5.2450   -1.9783   -0.9320 O   0  0  0  0  0  0  0  0  0  0  0  0
    3.8581   -2.1176    1.1772 O   0  0  0  0  0  0  0  0  0  0  0  0
    3.4434   -0.1911   -0.4821 N   0  0  0  0  0  0  0  0  0  0  0  0
    0.2206    0.5626   -0.1233 N   0  0  0  0  0  0  0  0  0  0  0  0
   -0.0899    0.9645    1.1211 N   0  0  0  0  0  0  0  0  0  0  0  0
    1.1952    4.2168   -0.4176 N   0  0  0  0  0  0  0  0  0  0  0  0
   -3.2272   -1.6588   -1.0382 N   0  0  0  0  0  0  0  0  0  0  0  0
   -6.5188   -0.0832    0.6958 N   0  0  0  0  0  0  0  0  0  0  0  0
   -5.6482   -1.7609   -0.8012 N   0  0  0  0  0  0  0  0  0  0  0  0
    5.8060   -0.3378    1.0643 C   0  0  0  0  0  0  0  0  0  0  0  0
    1.5337    0.7685   -0.7055 C   0  0  0  0  0  0  0  0  0  0  0  0
    7.0779   -1.1046    1.2783 C   0  0  0  0  0  0  0  0  0  0  0  0
    7.0063   -0.0535    0.2097 C   0  0  0  0  0  0  0  0  0  0  0  0
    2.6465    0.7759    0.3543 C   0  0  0  0  0  0  0  0  0  0  0  0
    2.1655   -0.5426   -1.1985 C   0  0  0  0  0  0  0  0  0  0  0  0
    1.5005    1.9191   -1.6713 C   0  0  0  0  0  0  0  0  0  0  0  0
   -0.8064   -0.0538   -0.7757 C   0  0  0  0  0  0  0  0  0  0  0  0
    1.3300    3.2085   -0.9758 C   0  0  0  0  0  0  0  0  0  0  0  0
   -1.8622   -0.0553    0.1030 C   0  0  0  0  0  0  0  0  0  0  0  0
   -1.3634    0.5842    1.2536 C   0  0  0  0  0  0  0  0  0  0  0  0
   -3.1454   -0.6107   -0.1862 C   0  0  0  0  0  0  0  0  0  0  0  0
   -4.3084   -0.1000    0.3885 C   0  0  0  0  0  0  0  0  0  0  0  0
   -5.5012   -0.7199    0.0365 C   0  0  0  0  0  0  0  0  0  0  0  0
   -4.6357    0.9434    1.2918 C   0  0  0  0  0  0  0  0  0  0  0  0
   -4.4568   -2.1621   -1.2894 C   0  0  0  0  0  0  0  0  0  0  0  0
   -6.0037    0.9307    1.4622 C   0  0  0  0  0  0  0  0  0  0  0  0
    5.4806    0.3794    1.8026 H   0  0  0  0  0  0  0  0  0  0  0  0
    3.1859    1.7149    0.5076 H   0  0  0  0  0  0  0  0  0  0  0  0
    2.4131    0.3415    1.3335 H   0  0  0  0  0  0  0  0  0  0  0  0
    1.7352   -1.4735   -0.8105 H   0  0  0  0  0  0  0  0  0  0  0  0
    2.3101   -0.6367   -2.2786 H   0  0  0  0  0  0  0  0  0  0  0  0
    7.1409   -2.1408    0.9713 H   0  0  0  0  0  0  0  0  0  0  0  0
    7.6562   -0.8774    2.1664 H   0  0  0  0  0  0  0  0  0  0  0  0
    7.5342    0.8771    0.3899 H   0  0  0  0  0  0  0  0  0  0  0  0
    7.0525   -0.3689   -0.8234 H   0  0  0  0  0  0  0  0  0  0  0  0
    0.7113    1.7948   -2.4228 H   0  0  0  0  0  0  0  0  0  0  0  0
    2.4404    1.9674   -2.2368 H   0  0  0  0  0  0  0  0  0  0  0  0
   -0.7027   -0.4263   -1.7867 H   0  0  0  0  0  0  0  0  0  0  0  0
   -1.8530    0.7807    2.1962 H   0  0  0  0  0  0  0  0  0  0  0  0
   -3.9702    1.6485    1.7685 H   0  0  0  0  0  0  0  0  0  0  0  0
   -7.4981   -0.3231    0.6269 H   0  0  0  0  0  0  0  0  0  0  0  0
   -4.4880   -3.0011   -1.9761 H   0  0  0  0  0  0  0  0  0  0  0  0
   -6.6557    1.5543    2.0575 H   0  0  0  0  0  0  0  0  0  0  0  0
  1  2  2  0  0  0  0
  1  3  2  0  0  0  0
  1  4  1  0  0  0  0
  1 11  1  0  0  0  0
  4 15  1  0  0  0  0
  4 16  1  0  0  0  0
  5  6  1  0  0  0  0
  5 12  1  0  0  0  0
  5 18  1  0  0  0  0
  6 21  2  0  0  0  0
  7 19  3  0  0  0  0
  8 22  1  0  0  0  0
  8 26  2  0  0  0  0
  9 24  1  0  0  0  0
  9 27  1  0  0  0  0
  9 42  1  0  0  0  0
 10 24  2  0  0  0  0
 10 26  1  0  0  0  0
 11 13  1  0  0  0  0
 11 14  1  0  0  0  0
 11 28  1  0  0  0  0
 12 15  1  0  0  0  0
 12 16  1  0  0  0  0
 12 17  1  0  0  0  0
 13 14  1  0  0  0  0
 13 33  1  0  0  0  0
 13 34  1  0  0  0  0
 14 35  1  0  0  0  0
 14 36  1  0  0  0  0
 15 29  1  0  0  0  0
 15 30  1  0  0  0  0
 16 31  1  0  0  0  0
 16 32  1  0  0  0  0
 17 19  1  0  0  0  0
 17 37  1  0  0  0  0
 17 38  1  0  0  0  0
 18 20  2  0  0  0  0
 18 39  1  0  0  0  0
 20 21  1  0  0  0  0
 20 22  1  0  0  0  0
 21 40  1  0  0  0  0
 22 23  2  0  0  0  0
 23 24  1  0  0  0  0
 23 25  1  0  0  0  0
 25 27  2  0  0  0  0
 25 41  1  0  0  0  0
 26 43  1  0  0  0  0
 27 44  1  0  0  0  0
M  END
> <PUBCHEM_COMPOUND_CID>
44231134

> <PUBCHEM_CONFORMER_RMSD>
1.2

> <PUBCHEM_CONFORMER_DIVERSEORDER>
1
31
53
6
46
71
13
42
69
29
76
17
56
25
27
2
59
64
70
26
74
55
62
43
15
32
41
51
57
30
9
49
67
73
12
14
18
40
68
63
21
38
52
50
10
44
48
39
34
61
20
23
66
35
45
7
24
22
33
77
37
3
16
4
58
28
75
47
19
8
60
11
65
5
54
72
36

> <PUBCHEM_MMFF94_PARTIAL_CHARGES>
37
1 1.41
10 -0.57
11 -0.08
12 0.09
13 -0.2
14 -0.2
15 0.31
16 0.31
17 0.2
18 -0.3
19 0.36
2 -0.65
20 -0.05
21 0.14
22 0.36
24 0.11
25 -0.15
26 0.47
27 -0.3
28 0.1
3 -0.65
33 0.1
34 0.1
35 0.1
36 0.1
39 0.15
4 -0.75
40 0.15
41 0.15
42 0.27
43 0.15
44 0.15
5 0.48
6 -0.71
7 -0.56
8 -0.62
9 0.03

> <PUBCHEM_EFFECTIVE_ROTOR_COUNT>
6.4

> <PUBCHEM_PHARMACOPHORE_FEATURES>
11
1 2 acceptor
1 3 acceptor
1 6 acceptor
1 7 acceptor
1 9 donor
3 8 10 26 cation
3 9 10 24 cation
4 4 12 15 16 rings
5 5 6 18 20 21 rings
5 9 23 24 25 27 rings
6 8 10 22 23 24 26 rings

> <PUBCHEM_HEAVY_ATOM_COUNT>
27

> <PUBCHEM_ATOM_DEF_STEREO_COUNT>
0

> <PUBCHEM_ATOM_UDEF_STEREO_COUNT>
0

> <PUBCHEM_BOND_DEF_STEREO_COUNT>
0

> <PUBCHEM_BOND_UDEF_STEREO_COUNT>
0

> <PUBCHEM_ISOTOPIC_ATOM_COUNT>
0

> <PUBCHEM_COMPONENT_COUNT>
1

> <PUBCHEM_CACTVS_TAUTO_COUNT>
3

> <PUBCHEM_CONFORMER_ID>
02A2E9DE00000001

> <PUBCHEM_MMFF94_ENERGY>
49.6633

> <PUBCHEM_FEATURE_SELFOVERLAP>
56.117

> <PUBCHEM_SHAPE_FINGERPRINT>
10 15 16415471667353008938
10165383 225 11312055457307477578
10670039 82 11458416938305939198
11265709 11 18334294245515950428
11405975 8 18337399352378333635
11646440 116 18040721346733260720
11991303 11 12822999955120560468
12107183 9 18340775845324210977
12236239 1 18342740723488305458
12516196 113 18334857208454071592
12596602 18 17847059974124120538
12616971 3 18338809991605895241
13590594 115 18187365415543020253
13685833 64 17676490536272956626
13782708 43 16443644496387473273
14150022 121 18130223749646336032
14251764 18 18202846560999893979
14394314 77 18337389344508513176
14739800 52 17630323279731397449
14849402 71 18264494060414046932
15021287 119 18334583442944099057
15183329 4 17385723590690285554
15250474 111 18199747102104090199
15301273 46 17275109410396774214
15461852 350 16271918329703076981
17980427 23 17846212284612583828
17980427 26 17908136930382983396
1813 80 18336553733167718892
18222031 100 18410301298437399342
21033648 29 14764083259116125841
21315763 178 18408882910525106034
21521239 73 11241967071473575888
22224240 67 14261345864792134454
23198884 109 10953461820939429027
23522609 53 18192739858391593332
23559900 14 17241052135735641981
24771293 8 18341043121360652008
249057 3 18408603652589835293
2838139 119 9583518741455151934
3004659 81 18130801082916956997
345986 75 17969490529373055328
463206 1 18186522120183830514
5104073 3 18129671927794130395
5219985 9 18259982665768661252
559249 180 18343301462245992175
67856867 119 18200313358891957625
7226269 152 17275107185366416419

> <PUBCHEM_SHAPE_MULTIPOLES>
512.89
17.53
2.66
1.43
4.69
2.58
0.03
-9.28
5.82
1.18
-1.02
-0.2
0.06
-2.36

> <PUBCHEM_SHAPE_SELFOVERLAP>
1113.07

> <PUBCHEM_SHAPE_VOLUME>
284

> <PUBCHEM_COORDINATE_TYPE>
2
5
10

$$$$
58071385
  -OEChem-11282412143D

 56 59  0     0  0  0  0  0  0999 V2000
   -1.6326   -1.0759   -2.7447 P   0  0  0  0  0  0  0  0  0  0  0  0
   -4.3380   -1.0323    1.8711 F   0  0  0  0  0  0  0  0  0  0  0  0
    2.3803   -4.1782    0.4618 O   0  0  0  0  0  0  0  0  0  0  0  0
   -0.5034   -2.0408   -2.1033 O   0  0  0  0  0  0  0  0  0  0  0  0
    0.4210   -5.1979   -0.2047 O   0  0  0  0  0  0  0  0  0  0  0  0
   -1.8012   -0.7057    2.8665 O   0  0  0  0  0  0  0  0  0  0  0  0
   -1.1325    0.4123   -2.3538 O   0  0  0  0  0  0  0  0  0  0  0  0
   -1.3310   -1.1565   -4.3313 O   0  0  0  0  0  0  0  0  0  0  0  0
   -3.0474   -1.3860   -2.3516 O   0  0  0  0  0  0  0  0  0  0  0  0
    0.6362   -2.8695   -0.2550 N   0  0  0  0  0  0  0  0  0  0  0  0
    3.1598    1.3098    0.4439 N   0  0  0  0  0  0  0  0  0  0  0  0
    0.9809    2.1979    0.2258 N   0  0  0  0  0  0  0  0  0  0  0  0
   -1.1709    3.1052   -0.0047 N   0  0  0  0  0  0  0  0  0  0  0  0
    0.6622    4.4198   -0.6512 N   0  0  0  0  0  0  0  0  0  0  0  0
    1.6695   -2.0212    0.0792 C   0  0  0  0  0  0  0  0  0  0  0  0
    2.7032   -2.8300    0.5055 C   0  0  0  0  0  0  0  0  0  0  0  0
    1.7762   -0.6466    0.0421 C   0  0  0  0  0  0  0  0  0  0  0  0
    2.9894   -0.0924    0.4589 C   0  0  0  0  0  0  0  0  0  0  0  0
    3.9090   -2.3055    0.9208 C   0  0  0  0  0  0  0  0  0  0  0  0
   -0.6460   -2.4388   -0.7521 C   0  0  0  0  0  0  0  0  0  0  0  0
    4.0471   -0.9148    0.8947 C   0  0  0  0  0  0  0  0  0  0  0  0
    1.0604   -4.1682   -0.0261 C   0  0  0  0  0  0  0  0  0  0  0  0
    2.3106    2.3678    0.0715 C   0  0  0  0  0  0  0  0  0  0  0  0
    2.8834    3.5185   -0.4304 C   0  0  0  0  0  0  0  0  0  0  0  0
   -1.9760    2.0538    0.4711 C   0  0  0  0  0  0  0  0  0  0  0  0
    0.2265    3.2484   -0.1499 C   0  0  0  0  0  0  0  0  0  0  0  0
   -4.0645    0.8395    0.4414 C   0  0  0  0  0  0  0  0  0  0  0  0
   -3.2660    1.8811   -0.0306 C   0  0  0  0  0  0  0  0  0  0  0  0
    2.0017    4.5214   -0.7786 C   0  0  0  0  0  0  0  0  0  0  0  0
   -1.4843    1.1843    1.4448 C   0  0  0  0  0  0  0  0  0  0  0  0
    4.3489    3.7009   -0.6001 C   0  0  0  0  0  0  0  0  0  0  0  0
   -2.2827    0.1426    1.9169 C   0  0  0  0  0  0  0  0  0  0  0  0
   -3.5727   -0.0298    1.4153 C   0  0  0  0  0  0  0  0  0  0  0  0
   -5.4431    0.6571   -0.0973 C   0  0  0  0  0  0  0  0  0  0  0  0
   -0.4740   -0.4702    3.3341 C   0  0  0  0  0  0  0  0  0  0  0  0
    0.9447   -0.0669   -0.3297 H   0  0  0  0  0  0  0  0  0  0  0  0
    4.7208   -2.9406    1.2555 H   0  0  0  0  0  0  0  0  0  0  0  0
   -1.0188   -1.6135   -0.1395 H   0  0  0  0  0  0  0  0  0  0  0  0
   -1.3546   -3.2711   -0.7054 H   0  0  0  0  0  0  0  0  0  0  0  0
    4.9878   -0.4737    1.2169 H   0  0  0  0  0  0  0  0  0  0  0  0
    4.0613    1.6077    0.8046 H   0  0  0  0  0  0  0  0  0  0  0  0
   -1.6855    3.8705   -0.4298 H   0  0  0  0  0  0  0  0  0  0  0  0
   -3.6472    2.5596   -0.7906 H   0  0  0  0  0  0  0  0  0  0  0  0
    2.3458    5.4682   -1.1828 H   0  0  0  0  0  0  0  0  0  0  0  0
   -0.5034    1.3737    1.8588 H   0  0  0  0  0  0  0  0  0  0  0  0
    4.8465    3.7405    0.3743 H   0  0  0  0  0  0  0  0  0  0  0  0
    4.7770    2.8863   -1.1936 H   0  0  0  0  0  0  0  0  0  0  0  0
    4.5800    4.6343   -1.1253 H   0  0  0  0  0  0  0  0  0  0  0  0
   -5.6125   -0.3895   -0.3720 H   0  0  0  0  0  0  0  0  0  0  0  0
   -6.1829    0.9529    0.6534 H   0  0  0  0  0  0  0  0  0  0  0  0
   -5.6109    1.2586   -0.9970 H   0  0  0  0  0  0  0  0  0  0  0  0
   -1.7005    1.1786   -2.5821 H   0  0  0  0  0  0  0  0  0  0  0  0
   -1.9464   -0.7145   -4.9543 H   0  0  0  0  0  0  0  0  0  0  0  0
    0.2630   -0.5754    2.5339 H   0  0  0  0  0  0  0  0  0  0  0  0
   -0.3942    0.4918    3.8516 H   0  0  0  0  0  0  0  0  0  0  0  0
   -0.2511   -1.2470    4.0730 H   0  0  0  0  0  0  0  0  0  0  0  0
  1  4  1  0  0  0  0
  1  7  1  0  0  0  0
  1  8  1  0  0  0  0
  1  9  2  0  0  0  0
  2 33  1  0  0  0  0
  3 16  1  0  0  0  0
  3 22  1  0  0  0  0
  4 20  1  0  0  0  0
  5 22  2  0  0  0  0
  6 32  1  0  0  0  0
  6 35  1  0  0  0  0
  7 52  1  0  0  0  0
  8 53  1  0  0  0  0
 10 15  1  0  0  0  0
 10 20  1  0  0  0  0
 10 22  1  0  0  0  0
 11 18  1  0  0  0  0
 11 23  1  0  0  0  0
 11 41  1  0  0  0  0
 12 23  2  0  0  0  0
 12 26  1  0  0  0  0
 13 25  1  0  0  0  0
 13 26  1  0  0  0  0
 13 42  1  0  0  0  0
 14 26  2  0  0  0  0
 14 29  1  0  0  0  0
 15 16  2  0  0  0  0
 15 17  1  0  0  0  0
 16 19  1  0  0  0  0
 17 18  2  0  0  0  0
 17 36  1  0  0  0  0
 18 21  1  0  0  0  0
 19 21  2  0  0  0  0
 19 37  1  0  0  0  0
 20 38  1  0  0  0  0
 20 39  1  0  0  0  0
 21 40  1  0  0  0  0
 23 24  1  0  0  0  0
 24 29  2  0  0  0  0
 24 31  1  0  0  0  0
 25 28  1  0  0  0  0
 25 30  2  0  0  0  0
 27 28  2  0  0  0  0
 27 33  1  0  0  0  0
 27 34  1  0  0  0  0
 28 43  1  0  0  0  0
 29 44  1  0  0  0  0
 30 32  1  0  0  0  0
 30 45  1  0  0  0  0
 31 46  1  0  0  0  0
 31 47  1  0  0  0  0
 31 48  1  0  0  0  0
 32 33  2  0  0  0  0
 34 49  1  0  0  0  0
 34 50  1  0  0  0  0
 34 51  1  0  0  0  0
 35 54  1  0  0  0  0
 35 55  1  0  0  0  0
 35 56  1  0  0  0  0
M  END
> <PUBCHEM_COMPOUND_CID>
58071385

> <PUBCHEM_CONFORMER_RMSD>
1

> <PUBCHEM_CONFORMER_DIVERSEORDER>
1
115
166
24
97
120
91
145
72
73
146
95
116
96
140
21
150
153
57
107
154
2
76
47
139
123
158
69
71
70
93
23
34
117
54
133
151
155
99
157
119
130
124
106
45
40
56
164
160
127
148
37
30
84
60
67
87
163
159
32
43
44
114
125
121
147
122
63
105
13
143
152
83
5
3
80
126
149
6
111
81
8
162
134
136
108
168
101
88
59
39
79
58
138
110
82
118
74
12
19
78
142
165
46
62
25
42
135
156
20
132
65
141
100
112
18
104
38
53
128
36
14
26
85
90
28
68
29
86
144
33
22
48
27
98
11
129
161
131
31
4
52
77
113
9
17
75
94
137
102
92
51
7
61
49
50
10
41
66
64
109
89
35
15
55
16
103
167

> <PUBCHEM_MMFF94_PARTIAL_CHARGES>
45
1 1.51
10 -0.48
11 -0.6
12 -0.62
13 -0.6
14 -0.62
15 0.12
16 0.08
17 -0.15
18 0.1
19 -0.15
2 -0.19
20 0.58
21 -0.15
22 0.78
23 0.41
24 -0.14
25 0.1
26 0.72
27 -0.14
28 -0.15
29 0.16
3 -0.23
30 -0.15
31 0.14
32 0.08
33 0.19
34 0.14
35 0.28
36 0.15
37 0.15
4 -0.55
40 0.15
41 0.4
42 0.4
43 0.15
44 0.15
45 0.15
5 -0.57
52 0.5
53 0.5
6 -0.36
7 -0.77
8 -0.77
9 -0.7

> <PUBCHEM_EFFECTIVE_ROTOR_COUNT>
8

> <PUBCHEM_PHARMACOPHORE_FEATURES>
13
1 11 donor
1 13 donor
1 5 acceptor
1 6 acceptor
1 7 acceptor
1 8 acceptor
1 9 acceptor
4 1 7 8 9 anion
4 12 13 14 26 cation
5 3 10 15 16 22 rings
6 12 14 23 24 26 29 rings
6 15 16 17 18 19 21 rings
6 25 27 28 30 32 33 rings

> <PUBCHEM_HEAVY_ATOM_COUNT>
35

> <PUBCHEM_ATOM_DEF_STEREO_COUNT>
0

> <PUBCHEM_ATOM_UDEF_STEREO_COUNT>
0

> <PUBCHEM_BOND_DEF_STEREO_COUNT>
0

> <PUBCHEM_BOND_UDEF_STEREO_COUNT>
0

> <PUBCHEM_ISOTOPIC_ATOM_COUNT>
0

> <PUBCHEM_COMPONENT_COUNT>
1

> <PUBCHEM_CACTVS_TAUTO_COUNT>
9

> <PUBCHEM_CONFORMER_ID>
0376195900000001

> <PUBCHEM_MMFF94_ENERGY>
89.6205

> <PUBCHEM_FEATURE_SELFOVERLAP>
66.121

> <PUBCHEM_SHAPE_FINGERPRINT>
10190206 1 15450607701803794276
11578080 2 15720210873912168992
11763715 3 17544227907773055271
12156800 1 16464794903701613263
12202916 173 18115577145881659970
12539773 59 17703514410121802961
12788726 201 17557423490040456103
1361 2 18410011082865007905
140371 6 17975699390084370616
14659021 117 17181653975246567210
14725015 67 16464733837724846753
14747281 78 18046657567168399925
14866123 147 17977674435543681384
17138139 8 17414140641051836213
19930381 70 18336828598253038379
20764821 26 18264199378559788644
23419403 2 17749099006720768719
23559900 14 18334014969114297841
35225 105 17252060570690915949
4409770 3 14960289622649772239
469060 322 18124000517204534471
484985 159 17544475714147549036
50150288 127 17268377301940924339
5309563 4 18265335001745036416
57527452 28 17632009745752156715
6438718 38 16692210157823378768

> <PUBCHEM_SHAPE_MULTIPOLES>
650.87
7.35
6.53
2.65
3.51
0.81
1.39
1.36
-1.77
-7.13
1.68
2.72
-1.6
-1.54

> <PUBCHEM_SHAPE_SELFOVERLAP>
1402.832

> <PUBCHEM_SHAPE_VOLUME>
363

> <PUBCHEM_COORDINATE_TYPE>
2
5
10

$$$$
86280672
  -OEChem-11282412143D

 58 61  0     1  0  0  0  0  0999 V2000
   -0.7790   -2.1594   -1.6027 F   0  0  0  0  0  0  0  0  0  0  0  0
   -4.4556    1.4245    0.2867 F   0  0  0  0  0  0  0  0  0  0  0  0
   -8.0968    1.5313    0.2987 F   0  0  0  0  0  0  0  0  0  0  0  0
   -7.8444    0.7628    2.3204 F   0  0  0  0  0  0  0  0  0  0  0  0
   -9.6309    0.2501    1.1746 F   0  0  0  0  0  0  0  0  0  0  0  0
   -5.8378   -1.8601   -1.4690 O   0  0  0  0  0  0  0  0  0  0  0  0
    0.0939    0.3155   -0.6883 N   0  0  0  0  0  0  0  0  0  0  0  0
    3.4339    0.6710    0.0440 N   0  0  0  0  0  0  0  0  0  0  0  0
    3.6399    1.2534    1.2376 N   0  0  0  0  0  0  0  0  0  0  0  0
    3.0049    4.1903   -1.3491 N   0  0  0  0  0  0  0  0  0  0  0  0
    8.8286   -1.1209    1.0377 N   0  0  0  0  0  0  0  0  0  0  0  0
    8.3887   -2.1626    0.3114 N   0  0  0  0  0  0  0  0  0  0  0  0
   -6.1717   -0.4919    0.3730 N   0  0  0  0  0  0  0  0  0  0  0  0
    2.0833    0.8689   -0.7880 C   0  0  0  0  0  0  0  0  0  0  0  0
    1.2463   -0.4021   -1.1142 C   0  0  0  0  0  0  0  0  0  0  0  0
    0.8185    1.3349   -0.0099 C   0  0  0  0  0  0  0  0  0  0  0  0
    2.3711    1.7283   -2.0275 C   0  0  0  0  0  0  0  0  0  0  0  0
   -1.2649   -0.0284   -0.6738 C   0  0  0  0  0  0  0  0  0  0  0  0
    4.4779   -0.0961   -0.3825 C   0  0  0  0  0  0  0  0  0  0  0  0
    5.4333   -0.0096    0.6006 C   0  0  0  0  0  0  0  0  0  0  0  0
    2.7258    3.1051   -1.6508 C   0  0  0  0  0  0  0  0  0  0  0  0
   -1.6761   -1.2777   -1.1388 C   0  0  0  0  0  0  0  0  0  0  0  0
   -2.2067    0.8814   -0.1932 C   0  0  0  0  0  0  0  0  0  0  0  0
    4.8630    0.8339    1.5725 C   0  0  0  0  0  0  0  0  0  0  0  0
    6.7348   -0.6262    0.6606 C   0  0  0  0  0  0  0  0  0  0  0  0
   -3.5596    0.5421   -0.1776 C   0  0  0  0  0  0  0  0  0  0  0  0
   -3.0290   -1.6169   -1.1233 C   0  0  0  0  0  0  0  0  0  0  0  0
   -3.9708   -0.7072   -0.6425 C   0  0  0  0  0  0  0  0  0  0  0  0
    7.8768   -0.1731    1.2746 C   0  0  0  0  0  0  0  0  0  0  0  0
    7.1090   -1.8548    0.0840 C   0  0  0  0  0  0  0  0  0  0  0  0
   -5.3806   -1.0641   -0.6299 C   0  0  0  0  0  0  0  0  0  0  0  0
    8.1680    1.0430    2.0538 C   0  0  0  0  0  0  0  0  0  0  0  0
    6.2760   -2.7824   -0.7040 C   0  0  0  0  0  0  0  0  0  0  0  0
   -7.5819   -0.7657    0.5319 C   0  0  2  0  0  0  0  0  0  0  0  0
   -8.2986    0.4513    1.0861 C   0  0  0  0  0  0  0  0  0  0  0  0
   -7.7893   -1.9888    1.4167 C   0  0  0  0  0  0  0  0  0  0  0  0
    1.2198   -0.6986   -2.1663 H   0  0  0  0  0  0  0  0  0  0  0  0
    1.4502   -1.2716   -0.4806 H   0  0  0  0  0  0  0  0  0  0  0  0
    0.8335    1.1665    1.0721 H   0  0  0  0  0  0  0  0  0  0  0  0
    0.4533    2.3432   -0.2213 H   0  0  0  0  0  0  0  0  0  0  0  0
    1.4917    1.7665   -2.6832 H   0  0  0  0  0  0  0  0  0  0  0  0
    3.1756    1.2845   -2.6254 H   0  0  0  0  0  0  0  0  0  0  0  0
    4.4454   -0.6152   -1.3302 H   0  0  0  0  0  0  0  0  0  0  0  0
   -1.9109    1.8607    0.1728 H   0  0  0  0  0  0  0  0  0  0  0  0
    5.2720    1.1629    2.5172 H   0  0  0  0  0  0  0  0  0  0  0  0
   -3.3284   -2.5966   -1.4863 H   0  0  0  0  0  0  0  0  0  0  0  0
    9.7949   -1.1235    1.3400 H   0  0  0  0  0  0  0  0  0  0  0  0
    7.7479    0.9637    3.0614 H   0  0  0  0  0  0  0  0  0  0  0  0
    7.7459    1.9298    1.5704 H   0  0  0  0  0  0  0  0  0  0  0  0
    9.2462    1.2079    2.1537 H   0  0  0  0  0  0  0  0  0  0  0  0
    6.1013   -2.3858   -1.7090 H   0  0  0  0  0  0  0  0  0  0  0  0
    6.7601   -3.7591   -0.8156 H   0  0  0  0  0  0  0  0  0  0  0  0
    5.3096   -2.9565   -0.2202 H   0  0  0  0  0  0  0  0  0  0  0  0
   -5.7318    0.0930    1.0774 H   0  0  0  0  0  0  0  0  0  0  0  0
   -7.9967   -0.9864   -0.4587 H   0  0  0  0  0  0  0  0  0  0  0  0
   -7.3682   -1.8324    2.4162 H   0  0  0  0  0  0  0  0  0  0  0  0
   -8.8543   -2.2176    1.5267 H   0  0  0  0  0  0  0  0  0  0  0  0
   -7.2982   -2.8695    0.9886 H   0  0  0  0  0  0  0  0  0  0  0  0
  1 22  1  0  0  0  0
  2 26  1  0  0  0  0
  3 35  1  0  0  0  0
  4 35  1  0  0  0  0
  5 35  1  0  0  0  0
  6 31  2  0  0  0  0
  7 15  1  0  0  0  0
  7 16  1  0  0  0  0
  7 18  1  0  0  0  0
  8  9  1  0  0  0  0
  8 14  1  0  0  0  0
  8 19  1  0  0  0  0
  9 24  2  0  0  0  0
 10 21  3  0  0  0  0
 11 12  1  0  0  0  0
 11 29  1  0  0  0  0
 11 47  1  0  0  0  0
 12 30  2  0  0  0  0
 13 31  1  0  0  0  0
 13 34  1  0  0  0  0
 13 54  1  0  0  0  0
 14 15  1  0  0  0  0
 14 16  1  0  0  0  0
 14 17  1  0  0  0  0
 15 37  1  0  0  0  0
 15 38  1  0  0  0  0
 16 39  1  0  0  0  0
 16 40  1  0  0  0  0
 17 21  1  0  0  0  0
 17 41  1  0  0  0  0
 17 42  1  0  0  0  0
 18 22  2  0  0  0  0
 18 23  1  0  0  0  0
 19 20  2  0  0  0  0
 19 43  1  0  0  0  0
 20 24  1  0  0  0  0
 20 25  1  0  0  0  0
 22 27  1  0  0  0  0
 23 26  2  0  0  0  0
 23 44  1  0  0  0  0
 24 45  1  0  0  0  0
 25 29  2  0  0  0  0
 25 30  1  0  0  0  0
 26 28  1  0  0  0  0
 27 28  2  0  0  0  0
 27 46  1  0  0  0  0
 28 31  1  0  0  0  0
 29 32  1  0  0  0  0
 30 33  1  0  0  0  0
 32 48  1  0  0  0  0
 32 49  1  0  0  0  0
 32 50  1  0  0  0  0
 33 51  1  0  0  0  0
 33 52  1  0  0  0  0
 33 53  1  0  0  0  0
 34 35  1  0  0  0  0
 34 36  1  0  0  0  0
 34 55  1  0  0  0  0
 36 56  1  0  0  0  0
 36 57  1  0  0  0  0
 36 58  1  0  0  0  0
M  END
> <PUBCHEM_COMPOUND_CID>
86280672

> <PUBCHEM_CONFORMER_RMSD>
1

> <PUBCHEM_CONFORMER_DIVERSEORDER>
1
132
82
113
108
83
159
120
106
160
68
122
33
116
96
148
146
151
39
32
79
123
61
27
47
103
99
130
109
31
81
152
29
91
165
140
54
90
45
141
30
119
77
101
166
42
163
100
38
74
64
128
65
34
66
147
50
107
70
136
115
37
154
80
133
85
117
127
142
28
155
89
149
104
76
43
59
10
162
40
98
18
16
129
71
156
144
110
73
94
41
84
12
23
135
9
121
49
52
20
145
131
36
67
124
95
167
88
164
53
21
125
143
62
153
118
69
161
55
63
51
58
5
46
93
15
7
111
57
75
56
112
48
6
72
44
13
92
22
11
86
102
24
25
17
114
19
14
8
26
105
60
150
158
2
87
78
157
137
4
3
126
134
35
139
97
138

> <PUBCHEM_MMFF94_PARTIAL_CHARGES>
39
1 -0.19
10 -0.56
11 0.3
12 -0.71
13 -0.73
14 0.09
15 0.25
16 0.25
17 0.2
18 0.1
19 -0.3
2 -0.19
21 0.36
22 0.19
23 -0.15
24 0.14
26 0.19
27 -0.15
28 0.09
29 -0.33
3 -0.34
30 0.11
31 0.54
32 0.18
33 0.18
34 0.3
35 1.02
4 -0.34
43 0.15
44 0.15
45 0.15
46 0.15
47 0.27
5 -0.34
54 0.37
6 -0.57
7 -0.59
8 0.48
9 -0.71

> <PUBCHEM_EFFECTIVE_ROTOR_COUNT>
8.8

> <PUBCHEM_PHARMACOPHORE_FEATURES>
11
1 10 acceptor
1 11 donor
1 12 acceptor
1 13 donor
1 6 acceptor
1 7 cation
1 9 acceptor
4 7 14 15 16 rings
5 11 12 25 29 30 rings
5 8 9 19 20 24 rings
6 18 22 23 26 27 28 rings

> <PUBCHEM_HEAVY_ATOM_COUNT>
36

> <PUBCHEM_ATOM_DEF_STEREO_COUNT>
1

> <PUBCHEM_ATOM_UDEF_STEREO_COUNT>
0

> <PUBCHEM_BOND_DEF_STEREO_COUNT>
0

> <PUBCHEM_BOND_UDEF_STEREO_COUNT>
0

> <PUBCHEM_ISOTOPIC_ATOM_COUNT>
0

> <PUBCHEM_COMPONENT_COUNT>
1

> <PUBCHEM_CACTVS_TAUTO_COUNT>
10

> <PUBCHEM_CONFORMER_ID>
052489E000000001

> <PUBCHEM_MMFF94_ENERGY>
77.4419

> <PUBCHEM_FEATURE_SELFOVERLAP>
55.823

> <PUBCHEM_SHAPE_FINGERPRINT>
10076449 9 15140680276252736925
10533779 47 18272102564993203011
11411753 29 16660357112893517597
11456790 92 17989491831409013907
12082328 90 13334728021121344467
12166972 35 18411978087782225536
12373685 5 15338830950512290133
12516196 113 18187355529281827620
13383668 362 18268991062828459570
13673619 4 16950559982814138716
13782708 43 15357969119067835977
14444916 359 17603586322598520163
150020 25 8790878597156427522
15183329 4 12252176339129444430
15419008 145 18410294675683036785
1577012 14 18340491183244344821
15776043 110 18113896035430669411
1754911 235 8790887384807676275
1818759 1 17676490535977843538
19301679 30 18189331269845715490
19315958 150 17918273148054332870
20105231 36 17530963579172218138
2026 5 15503200203987333410
20554085 129 11455885854892421902
21130935 74 18130782425300052247
21150785 3 11241970382560635715
21267235 1 17894347778452850268
21591340 7 17489581273676563663
21781055 127 17773901777367677676
21792934 111 18272373053801753005
22149856 69 18202560692909787650
23576562 1 9510877264399532739
246663 6 16805041813374255187
25269216 80 17095807612575692254
3178227 256 17967532389432054530
3383291 50 18186801404447788643
4516262 110 10807935960078204408
504579 68 8574713494307012617
57303763 39 18190185766369278914
5937810 71 8862677802443340691
6058803 2 17834956747482470783
636775 72 16487263145443948969
9962374 69 18114740559261424846

> <PUBCHEM_SHAPE_MULTIPOLES>
663.76
30.5
2.71
1.74
19.88
1.45
-0.27
-11.6
-19.37
-3.29
1.35
-0.01
0.34
-0.89

> <PUBCHEM_SHAPE_SELFOVERLAP>
1438.807

> <PUBCHEM_SHAPE_VOLUME>
364.8

> <PUBCHEM_COORDINATE_TYPE>
2
5
10

$$$$
130339268
  -OEChem-11282412143D

 46 50  0     0  0  0  0  0  0999 V2000
   -2.3741    0.1836   -0.3654 N   0  0  0  0  0  0  0  0  0  0  0  0
   -2.4684    1.3280   -1.0638 N   0  0  0  0  0  0  0  0  0  0  0  0
   -7.0013    0.3803    2.7629 N   0  0  0  0  0  0  0  0  0  0  0  0
    1.8529   -0.0153   -0.0528 N   0  0  0  0  0  0  0  0  0  0  0  0
   -3.7487   -1.5582   -3.4666 N   0  0  0  0  0  0  0  0  0  0  0  0
    3.1169    2.4712    0.0905 N   0  0  0  0  0  0  0  0  0  0  0  0
    3.5386    3.7580    0.1450 N   0  0  0  0  0  0  0  0  0  0  0  0
    4.5760   -3.2485    0.3996 N   0  0  0  0  0  0  0  0  0  0  0  0
    5.7404   -2.5977    0.5641 N   0  0  0  0  0  0  0  0  0  0  0  0
   -3.6421   -0.7521   -0.0707 C   0  0  0  0  0  0  0  0  0  0  0  0
   -5.0574   -0.0879   -0.1834 C   0  0  0  0  0  0  0  0  0  0  0  0
   -4.0037   -1.0066    1.4332 C   0  0  0  0  0  0  0  0  0  0  0  0
   -5.5004   -0.8964    1.0586 C   0  0  0  0  0  0  0  0  0  0  0  0
   -3.5070   -2.0426   -0.8919 C   0  0  0  0  0  0  0  0  0  0  0  0
   -1.1097   -0.0999    0.0601 C   0  0  0  0  0  0  0  0  0  0  0  0
   -6.3328   -0.1882    2.0039 C   0  0  0  0  0  0  0  0  0  0  0  0
   -0.3219    0.9308   -0.3912 C   0  0  0  0  0  0  0  0  0  0  0  0
   -3.6416   -1.7741   -2.3315 C   0  0  0  0  0  0  0  0  0  0  0  0
   -1.2116    1.7799   -1.0761 C   0  0  0  0  0  0  0  0  0  0  0  0
    1.1352    1.0701   -0.1769 C   0  0  0  0  0  0  0  0  0  0  0  0
    1.7454    2.3847   -0.0944 C   0  0  0  0  0  0  0  0  0  0  0  0
    3.2256    0.1072    0.1318 C   0  0  0  0  0  0  0  0  0  0  0  0
    1.2720    3.6752   -0.1195 C   0  0  0  0  0  0  0  0  0  0  0  0
    3.8563    1.2991    0.2047 C   0  0  0  0  0  0  0  0  0  0  0  0
    4.0019   -1.1449    0.2733 C   0  0  0  0  0  0  0  0  0  0  0  0
    2.4192    4.4728    0.0234 C   0  0  0  0  0  0  0  0  0  0  0  0
    3.5041   -2.4240    0.2217 C   0  0  0  0  0  0  0  0  0  0  0  0
    5.3832   -1.3130    0.4861 C   0  0  0  0  0  0  0  0  0  0  0  0
    4.5530   -4.6913    0.4252 C   0  0  0  0  0  0  0  0  0  0  0  0
   -5.0490    0.9993   -0.0297 H   0  0  0  0  0  0  0  0  0  0  0  0
   -5.6321   -0.2901   -1.0923 H   0  0  0  0  0  0  0  0  0  0  0  0
   -3.6424   -0.2198    2.1081 H   0  0  0  0  0  0  0  0  0  0  0  0
   -3.6936   -1.9736    1.8417 H   0  0  0  0  0  0  0  0  0  0  0  0
   -5.9307   -1.8690    0.7854 H   0  0  0  0  0  0  0  0  0  0  0  0
   -4.2742   -2.7719   -0.6052 H   0  0  0  0  0  0  0  0  0  0  0  0
   -2.5444   -2.5274   -0.6906 H   0  0  0  0  0  0  0  0  0  0  0  0
   -0.8860   -0.9876    0.6360 H   0  0  0  0  0  0  0  0  0  0  0  0
   -1.0116    2.6984   -1.6077 H   0  0  0  0  0  0  0  0  0  0  0  0
    0.2524    4.0147   -0.2145 H   0  0  0  0  0  0  0  0  0  0  0  0
    4.9216    1.4252    0.3540 H   0  0  0  0  0  0  0  0  0  0  0  0
    2.4861    5.5509    0.0497 H   0  0  0  0  0  0  0  0  0  0  0  0
    2.5041   -2.8114    0.0773 H   0  0  0  0  0  0  0  0  0  0  0  0
    6.1566   -0.5652    0.5895 H   0  0  0  0  0  0  0  0  0  0  0  0
    5.1952   -5.0599   -0.3786 H   0  0  0  0  0  0  0  0  0  0  0  0
    4.9242   -5.0240    1.3978 H   0  0  0  0  0  0  0  0  0  0  0  0
    3.5292   -5.0430    0.2761 H   0  0  0  0  0  0  0  0  0  0  0  0
  1  2  1  0  0  0  0
  1 10  1  0  0  0  0
  1 15  1  0  0  0  0
  2 19  2  0  0  0  0
  3 16  3  0  0  0  0
  4 20  2  0  0  0  0
  4 22  1  0  0  0  0
  5 18  3  0  0  0  0
  6  7  1  0  0  0  0
  6 21  1  0  0  0  0
  6 24  1  0  0  0  0
  7 26  2  0  0  0  0
  8  9  1  0  0  0  0
  8 27  1  0  0  0  0
  8 29  1  0  0  0  0
  9 28  2  0  0  0  0
 10 11  1  0  0  0  0
 10 12  1  0  0  0  0
 10 14  1  0  0  0  0
 11 13  1  0  0  0  0
 11 30  1  0  0  0  0
 11 31  1  0  0  0  0
 12 13  1  0  0  0  0
 12 32  1  0  0  0  0
 12 33  1  0  0  0  0
 13 16  1  0  0  0  0
 13 34  1  0  0  0  0
 14 18  1  0  0  0  0
 14 35  1  0  0  0  0
 14 36  1  0  0  0  0
 15 17  2  0  0  0  0
 15 37  1  0  0  0  0
 17 19  1  0  0  0  0
 17 20  1  0  0  0  0
 19 38  1  0  0  0  0
 20 21  1  0  0  0  0
 21 23  2  0  0  0  0
 22 24  2  0  0  0  0
 22 25  1  0  0  0  0
 23 26  1  0  0  0  0
 23 39  1  0  0  0  0
 24 40  1  0  0  0  0
 25 27  2  0  0  0  0
 25 28  1  0  0  0  0
 26 41  1  0  0  0  0
 27 42  1  0  0  0  0
 28 43  1  0  0  0  0
 29 44  1  0  0  0  0
 29 45  1  0  0  0  0
 29 46  1  0  0  0  0
M  END
> <PUBCHEM_COMPOUND_CID>
130339268

> <PUBCHEM_CONFORMER_RMSD>
1

> <PUBCHEM_CONFORMER_DIVERSEORDER>
1
16
64
62
72
70
58
47
41
28
67
6
78
66
77
4
80
57
90
20
87
83
71
19
51
34
17
68
31
86
44
30
14
84
11
7
94
85
61
24
65
40
55
10
76
63
89
56
21
49
46
29
5
15
45
53
91
50
37
23
3
93
8
60
12
52
42
9
69
88
26
35
32
38
13
2
33
18
54
79
75
81
27
39
43
48
74
82
59
92
73
36
22
25

> <PUBCHEM_MMFF94_PARTIAL_CHARGES>
34
1 0.48
10 0.09
13 0.18
14 0.2
15 -0.3
16 0.38
17 -0.09
18 0.36
19 0.14
2 -0.71
20 0.62
21 -0.24
22 0.22
23 -0.15
24 -0.18
25 -0.05
26 0.14
27 -0.3
28 0.14
29 0.26
3 -0.56
37 0.15
38 0.15
39 0.15
4 -0.62
40 0.15
41 0.15
42 0.15
43 0.15
5 -0.56
6 0.6
7 -0.71
8 0.31
9 -0.71

> <PUBCHEM_EFFECTIVE_ROTOR_COUNT>
4.8

> <PUBCHEM_PHARMACOPHORE_FEATURES>
11
1 2 acceptor
1 3 acceptor
1 4 acceptor
1 5 acceptor
1 7 acceptor
1 9 acceptor
4 10 11 12 13 rings
5 1 2 15 17 19 rings
5 6 7 21 23 26 rings
5 8 9 25 27 28 rings
6 4 6 20 21 22 24 rings

> <PUBCHEM_HEAVY_ATOM_COUNT>
29

> <PUBCHEM_ATOM_DEF_STEREO_COUNT>
0

> <PUBCHEM_ATOM_UDEF_STEREO_COUNT>
0

> <PUBCHEM_BOND_DEF_STEREO_COUNT>
0

> <PUBCHEM_BOND_UDEF_STEREO_COUNT>
0

> <PUBCHEM_ISOTOPIC_ATOM_COUNT>
0

> <PUBCHEM_COMPONENT_COUNT>
1

> <PUBCHEM_CACTVS_TAUTO_COUNT>
1

> <PUBCHEM_CONFORMER_ID>
07C4D1C400000001

> <PUBCHEM_MMFF94_ENERGY>
64.8771

> <PUBCHEM_FEATURE_SELFOVERLAP>
55.935

> <PUBCHEM_SHAPE_FINGERPRINT>
10622 236 17700101547700118879
11135926 11 18191019204735800340
114674 6 18113897191315130834
12107183 9 18270127799338905457
12342043 65 17676780833239172003
12616971 3 18343582975439318287
12633257 1 18060704996116561383
13533116 47 18335431196241614897
13540713 4 18041544902228235325
13540713 5 17987794258575796367
13673619 4 17821737108828632591
13785724 45 18198358259808856510
13955234 65 18339361989092532104
14114211 80 17396439667323039261
14347424 109 18411709785623095633
14863182 85 18335699512108716052
14866123 147 17618780263175936016
15250474 111 18058157513363756727
15475509 84 18130234761172466713
19246450 95 17984145855725153697
20775530 9 18336538314477946182
21049683 271 18187939391362844532
21130935 74 18263375836362349155
21133410 171 16890549582879547074
21421861 104 18272100404165177676
21796203 349 18267329602201846626
22033318 11 17983890837705341233
22182313 1 17531791567710485309
23559900 14 18336812152528265324
23569914 152 17615645628861358127
24771293 8 18129086983719608368
25147074 1 17916863655429740207
314194 84 18410567397257402606
3178227 256 18264212573095571664
3421961 26 18409728474164617512
345986 75 18060144215021709952
44880168 125 17416685739792967510
46194498 28 17022911168005554238
463206 1 18335138687531480314
5104073 3 18200880698692040739
5309563 4 18266176137258201346
56633871 153 18200591376314649543
6058803 2 17915456319158623117
613672 6 18120629385153575498
6679774 75 15667597760363388170
70251023 43 18266436832976879823
86090 222 17385734598707485459
8863177 126 18040726899820480659
9555976 147 17703243858138970827

> <PUBCHEM_SHAPE_MULTIPOLES>
551.98
14.97
5.01
1.77
11.37
1.16
0.77
-10.47
-7.28
-10.96
0.02
5.06
-0.92
-1.76

> <PUBCHEM_SHAPE_SELFOVERLAP>
1213.679

> <PUBCHEM_SHAPE_VOLUME>
300

> <PUBCHEM_COORDINATE_TYPE>
2
5
10

$$$$
10302451
  -OEChem-11282412143D

 70 75  0     0  0  0  0  0  0999 V2000
   -4.6392    1.3220    2.7641 Cl  0  0  0  0  0  0  0  0  0  0  0  0
   -0.6876    0.5340    1.4567 O   0  0  0  0  0  0  0  0  0  0  0  0
   -0.2180    4.5231    0.4792 O   0  0  0  0  0  0  0  0  0  0  0  0
    3.0648   -2.3107    0.9720 O   0  0  0  0  0  0  0  0  0  0  0  0
   -3.9369   -0.6863   -1.9455 O   0  0  0  0  0  0  0  0  0  0  0  0
   -5.9138    0.3570   -2.8462 O   0  0  0  0  0  0  0  0  0  0  0  0
    6.1317   -0.4755    0.0743 N   0  0  0  0  0  0  0  0  0  0  0  0
    8.0713    1.0566   -1.4253 N   0  0  0  0  0  0  0  0  0  0  0  0
   -3.0601   -0.3899    0.7929 N   0  0  0  0  0  0  0  0  0  0  0  0
   -1.2513   -3.9657   -0.2269 N   0  0  0  0  0  0  0  0  0  0  0  0
   -3.2073   -2.5755   -0.0074 N   0  0  0  0  0  0  0  0  0  0  0  0
    5.7423    0.2918   -1.1151 C   0  0  0  0  0  0  0  0  0  0  0  0
    7.5293   -0.9118   -0.0328 C   0  0  0  0  0  0  0  0  0  0  0  0
    6.6735    1.4919   -1.3185 C   0  0  0  0  0  0  0  0  0  0  0  0
    8.4612    0.2876   -0.2371 C   0  0  0  0  0  0  0  0  0  0  0  0
    5.2438   -1.6203    0.2673 C   0  0  0  0  0  0  0  0  0  0  0  0
   -0.1800    1.6614    0.7548 C   0  0  0  0  0  0  0  0  0  0  0  0
   -1.3184    2.4005    0.0562 C   0  0  0  0  0  0  0  0  0  0  0  0
    0.5268    2.5870    1.7407 C   0  0  0  0  0  0  0  0  0  0  0  0
    3.8995   -1.1705    0.8167 C   0  0  0  0  0  0  0  0  0  0  0  0
    8.9586    2.2022   -1.6164 C   0  0  0  0  0  0  0  0  0  0  0  0
   -0.8249    3.7156   -0.5302 C   0  0  0  0  0  0  0  0  0  0  0  0
    0.9218    3.8919    1.0641 C   0  0  0  0  0  0  0  0  0  0  0  0
   -0.2118   -0.6899    1.0875 C   0  0  0  0  0  0  0  0  0  0  0  0
    1.7145   -2.1086    0.8534 C   0  0  0  0  0  0  0  0  0  0  0  0
   -1.0279   -1.7268    0.6027 C   0  0  0  0  0  0  0  0  0  0  0  0
    1.1602   -0.8848    1.2116 C   0  0  0  0  0  0  0  0  0  0  0  0
   -0.4800   -2.9672    0.2378 C   0  0  0  0  0  0  0  0  0  0  0  0
    0.8961   -3.1348    0.3722 C   0  0  0  0  0  0  0  0  0  0  0  0
   -2.4060   -1.5971    0.4545 C   0  0  0  0  0  0  0  0  0  0  0  0
   -4.2186    0.2341    0.2978 C   0  0  0  0  0  0  0  0  0  0  0  0
   -2.5728   -3.7156   -0.3243 C   0  0  0  0  0  0  0  0  0  0  0  0
   -4.5958    0.0604   -1.0179 C   0  0  0  0  0  0  0  0  0  0  0  0
   -5.7246    0.6562   -1.5322 C   0  0  0  0  0  0  0  0  0  0  0  0
   -5.0254    1.0424    1.1023 C   0  0  0  0  0  0  0  0  0  0  0  0
   -6.5386    1.4587   -0.7591 C   0  0  0  0  0  0  0  0  0  0  0  0
   -6.1788    1.6512    0.5769 C   0  0  0  0  0  0  0  0  0  0  0  0
   -4.7781   -0.4946   -3.1012 C   0  0  0  0  0  0  0  0  0  0  0  0
    5.7585   -0.3410   -2.0131 H   0  0  0  0  0  0  0  0  0  0  0  0
    4.7284    0.6919   -1.0186 H   0  0  0  0  0  0  0  0  0  0  0  0
    7.6542   -1.6236   -0.8601 H   0  0  0  0  0  0  0  0  0  0  0  0
    7.8311   -1.4249    0.8884 H   0  0  0  0  0  0  0  0  0  0  0  0
    6.3755    2.0075   -2.2396 H   0  0  0  0  0  0  0  0  0  0  0  0
    6.5463    2.2026   -0.4904 H   0  0  0  0  0  0  0  0  0  0  0  0
    8.4495    0.9209    0.6605 H   0  0  0  0  0  0  0  0  0  0  0  0
    9.4846   -0.0877   -0.3582 H   0  0  0  0  0  0  0  0  0  0  0  0
    5.6737   -2.3188    0.9982 H   0  0  0  0  0  0  0  0  0  0  0  0
    5.1137   -2.2041   -0.6537 H   0  0  0  0  0  0  0  0  0  0  0  0
    0.5391    1.3623   -0.0218 H   0  0  0  0  0  0  0  0  0  0  0  0
   -1.7551    1.7752   -0.7296 H   0  0  0  0  0  0  0  0  0  0  0  0
   -2.1145    2.6009    0.7839 H   0  0  0  0  0  0  0  0  0  0  0  0
   -0.1529    2.7991    2.5766 H   0  0  0  0  0  0  0  0  0  0  0  0
    1.4063    2.1027    2.1769 H   0  0  0  0  0  0  0  0  0  0  0  0
    4.0318   -0.6885    1.7931 H   0  0  0  0  0  0  0  0  0  0  0  0
    3.4411   -0.4589    0.1224 H   0  0  0  0  0  0  0  0  0  0  0  0
    8.9202    2.9021   -0.7737 H   0  0  0  0  0  0  0  0  0  0  0  0
    9.9950    1.8691   -1.7408 H   0  0  0  0  0  0  0  0  0  0  0  0
    8.6921    2.7467   -2.5290 H   0  0  0  0  0  0  0  0  0  0  0  0
   -0.1073    3.5467   -1.3417 H   0  0  0  0  0  0  0  0  0  0  0  0
   -1.6674    4.2776   -0.9453 H   0  0  0  0  0  0  0  0  0  0  0  0
    1.3424    4.5821    1.8022 H   0  0  0  0  0  0  0  0  0  0  0  0
    1.6833    3.7272    0.2928 H   0  0  0  0  0  0  0  0  0  0  0  0
    1.7734   -0.0951    1.6322 H   0  0  0  0  0  0  0  0  0  0  0  0
    1.3493   -4.0858    0.0969 H   0  0  0  0  0  0  0  0  0  0  0  0
   -2.7293    0.0112    1.6663 H   0  0  0  0  0  0  0  0  0  0  0  0
   -3.1886   -4.5234   -0.7004 H   0  0  0  0  0  0  0  0  0  0  0  0
   -7.4269    1.9263   -1.1684 H   0  0  0  0  0  0  0  0  0  0  0  0
   -6.8061    2.2802    1.2044 H   0  0  0  0  0  0  0  0  0  0  0  0
   -4.1774   -0.0483   -3.9020 H   0  0  0  0  0  0  0  0  0  0  0  0
   -5.1411   -1.4729   -3.4366 H   0  0  0  0  0  0  0  0  0  0  0  0
  1 35  1  0  0  0  0
  2 17  1  0  0  0  0
  2 24  1  0  0  0  0
  3 22  1  0  0  0  0
  3 23  1  0  0  0  0
  4 20  1  0  0  0  0
  4 25  1  0  0  0  0
  5 33  1  0  0  0  0
  5 38  1  0  0  0  0
  6 34  1  0  0  0  0
  6 38  1  0  0  0  0
  7 12  1  0  0  0  0
  7 13  1  0  0  0  0
  7 16  1  0  0  0  0
  8 14  1  0  0  0  0
  8 15  1  0  0  0  0
  8 21  1  0  0  0  0
  9 30  1  0  0  0  0
  9 31  1  0  0  0  0
  9 65  1  0  0  0  0
 10 28  1  0  0  0  0
 10 32  2  0  0  0  0
 11 30  2  0  0  0  0
 11 32  1  0  0  0  0
 12 14  1  0  0  0  0
 12 39  1  0  0  0  0
 12 40  1  0  0  0  0
 13 15  1  0  0  0  0
 13 41  1  0  0  0  0
 13 42  1  0  0  0  0
 14 43  1  0  0  0  0
 14 44  1  0  0  0  0
 15 45  1  0  0  0  0
 15 46  1  0  0  0  0
 16 20  1  0  0  0  0
 16 47  1  0  0  0  0
 16 48  1  0  0  0  0
 17 18  1  0  0  0  0
 17 19  1  0  0  0  0
 17 49  1  0  0  0  0
 18 22  1  0  0  0  0
 18 50  1  0  0  0  0
 18 51  1  0  0  0  0
 19 23  1  0  0  0  0
 19 52  1  0  0  0  0
 19 53  1  0  0  0  0
 20 54  1  0  0  0  0
 20 55  1  0  0  0  0
 21 56  1  0  0  0  0
 21 57  1  0  0  0  0
 21 58  1  0  0  0  0
 22 59  1  0  0  0  0
 22 60  1  0  0  0  0
 23 61  1  0  0  0  0
 23 62  1  0  0  0  0
 24 26  1  0  0  0  0
 24 27  2  0  0  0  0
 25 27  1  0  0  0  0
 25 29  2  0  0  0  0
 26 28  2  0  0  0  0
 26 30  1  0  0  0  0
 27 63  1  0  0  0  0
 28 29  1  0  0  0  0
 29 64  1  0  0  0  0
 31 33  1  0  0  0  0
 31 35  2  0  0  0  0
 32 66  1  0  0  0  0
 33 34  2  0  0  0  0
 34 36  1  0  0  0  0
 35 37  1  0  0  0  0
 36 37  2  0  0  0  0
 36 67  1  0  0  0  0
 37 68  1  0  0  0  0
 38 69  1  0  0  0  0
 38 70  1  0  0  0  0
M  END
> <PUBCHEM_COMPOUND_CID>
10302451

> <PUBCHEM_CONFORMER_RMSD>
1.2

> <PUBCHEM_CONFORMER_DIVERSEORDER>
1
39
47
84
46
77
92
82
51
34
90
89
16
65
57
72
86
30
95
69
74
18
9
15
48
63
87
56
79
58
40
81
33
32
22
50
52
83
78
28
93
29
80
45
62
41
94
20
3
21
38
36
91
25
60
31
88
64
6
12
67
76
35
70
61
68
2
8
37
44
54
42
98
13
97
85
75
10
71
59
43
27
4
23
7
55
49
26
53
73
14
17
96
11
19
5
24
66

> <PUBCHEM_MMFF94_PARTIAL_CHARGES>
41
1 -0.18
10 -0.62
11 -0.62
12 0.27
13 0.27
14 0.27
15 0.27
16 0.27
17 0.28
2 -0.36
20 0.28
21 0.27
22 0.28
23 0.28
24 0.08
25 0.08
27 -0.15
28 0.31
29 -0.15
3 -0.56
30 0.41
31 0.1
32 0.47
33 0.08
34 0.08
35 0.18
36 -0.15
37 -0.15
38 0.56
4 -0.36
5 -0.36
6 -0.36
63 0.15
64 0.15
65 0.4
66 0.15
67 0.15
68 0.15
7 -0.81
8 -0.81
9 -0.6

> <PUBCHEM_EFFECTIVE_ROTOR_COUNT>
11

> <PUBCHEM_PHARMACOPHORE_FEATURES>
16
1 2 acceptor
1 3 acceptor
1 4 acceptor
1 5 acceptor
1 6 acceptor
1 7 cation
1 8 cation
1 9 donor
3 10 11 32 cation
3 9 11 30 cation
5 5 6 33 34 38 rings
6 10 11 26 28 30 32 rings
6 24 25 26 27 28 29 rings
6 3 17 18 19 22 23 rings
6 31 33 34 35 36 37 rings
6 7 8 12 13 14 15 rings

> <PUBCHEM_HEAVY_ATOM_COUNT>
38

> <PUBCHEM_ATOM_DEF_STEREO_COUNT>
0

> <PUBCHEM_ATOM_UDEF_STEREO_COUNT>
0

> <PUBCHEM_BOND_DEF_STEREO_COUNT>
0

> <PUBCHEM_BOND_UDEF_STEREO_COUNT>
0

> <PUBCHEM_ISOTOPIC_ATOM_COUNT>
0

> <PUBCHEM_COMPONENT_COUNT>
1

> <PUBCHEM_CACTVS_TAUTO_COUNT>
3

> <PUBCHEM_CONFORMER_ID>
009D33F300000001

> <PUBCHEM_MMFF94_ENERGY>
129.3442

> <PUBCHEM_FEATURE_SELFOVERLAP>
81.533

> <PUBCHEM_SHAPE_FINGERPRINT>
10483366 6 18410008836265075232
10554248 39 18340764833018151222
10906281 52 18270687458994164283
11621639 179 18120642536729422165
12788726 201 18267011774368358202
13383668 90 16343705408919745709
13690498 29 18124874813717412071
13911987 19 18335691707599160431
14394314 77 18409459076198638976
14767858 380 18411412887181025324
14840074 17 18336270050366834385
15276724 80 18339640023752575732
15538507 32 18411699911614906124
16992787 43 18409172086620894929
16994733 274 15936403421090571708
17899979 19 18187653491630984140
19319366 153 17968089768449611410
21033650 10 16988287486812577243
21304303 64 18259989236841601765
21987483 16 8429153543710065527
3918712 181 18263363750551652812
4394409 98 18333740138947242724
44880568 143 16056878014258610506
6036956 94 18118965784989846253

> <PUBCHEM_SHAPE_MULTIPOLES>
729.64
20.69
4.7
2.06
43.58
0.67
-0.94
8.74
-12
-0.36
0.84
-2.97
0.71
-2.55

> <PUBCHEM_SHAPE_SELFOVERLAP>
1579.442

> <PUBCHEM_SHAPE_VOLUME>
399.7

> <PUBCHEM_COORDINATE_TYPE>
2
5
10

$$$$
25127713
  -OEChem-11282412143D

 54 57  0     0  0  0  0  0  0999 V2000
   -4.9917    4.1635   -1.6363 Cl  0  0  0  0  0  0  0  0  0  0  0  0
   -6.3439    4.0338    1.2950 Cl  0  0  0  0  0  0  0  0  0  0  0  0
   -3.1840    1.9362   -2.1363 F   0  0  0  0  0  0  0  0  0  0  0  0
    2.3695   -1.4298   -0.7454 O   0  0  0  0  0  0  0  0  0  0  0  0
    6.7981    2.2671    1.0416 O   0  0  0  0  0  0  0  0  0  0  0  0
    2.4525   -4.1282   -0.0690 O   0  0  0  0  0  0  0  0  0  0  0  0
    4.5478    1.8330    0.6489 N   0  0  0  0  0  0  0  0  0  0  0  0
   -2.2714   -4.1691    0.5348 N   0  0  0  0  0  0  0  0  0  0  0  0
   -2.5436   -0.1584   -0.4503 N   0  0  0  0  0  0  0  0  0  0  0  0
   -3.5765   -2.1727    0.1914 N   0  0  0  0  0  0  0  0  0  0  0  0
    2.6998   -0.3131    0.0716 C   0  0  0  0  0  0  0  0  0  0  0  0
    2.7472    0.9580   -0.7805 C   0  0  0  0  0  0  0  0  0  0  0  0
    4.0508   -0.5734    0.7399 C   0  0  0  0  0  0  0  0  0  0  0  0
    3.2483    2.1450    0.0358 C   0  0  0  0  0  0  0  0  0  0  0  0
    4.5325    0.6501    1.5145 C   0  0  0  0  0  0  0  0  0  0  0  0
    5.7258    2.5613    0.5104 C   0  0  0  0  0  0  0  0  0  0  0  0
    1.2232   -2.1093   -0.4273 C   0  0  0  0  0  0  0  0  0  0  0  0
    0.0008   -1.4447   -0.4428 C   0  0  0  0  0  0  0  0  0  0  0  0
    1.2666   -3.4576   -0.0902 C   0  0  0  0  0  0  0  0  0  0  0  0
   -1.1795   -2.1360   -0.1189 C   0  0  0  0  0  0  0  0  0  0  0  0
    5.6933    3.7700   -0.3366 C   0  0  0  0  0  0  0  0  0  0  0  0
   -1.1486   -3.4979    0.2233 C   0  0  0  0  0  0  0  0  0  0  0  0
    0.0883   -4.1382    0.2307 C   0  0  0  0  0  0  0  0  0  0  0  0
   -2.4333   -1.5310   -0.1152 C   0  0  0  0  0  0  0  0  0  0  0  0
    6.8039    4.1369   -0.9793 C   0  0  0  0  0  0  0  0  0  0  0  0
   -3.4241   -3.4701    0.5023 C   0  0  0  0  0  0  0  0  0  0  0  0
   -3.4423    0.8442   -0.0530 C   0  0  0  0  0  0  0  0  0  0  0  0
    2.8625   -4.7578   -1.2813 C   0  0  0  0  0  0  0  0  0  0  0  0
   -3.7508    1.8921   -0.9204 C   0  0  0  0  0  0  0  0  0  0  0  0
   -4.0272    0.7909    1.2122 C   0  0  0  0  0  0  0  0  0  0  0  0
   -4.6443    2.8867   -0.5225 C   0  0  0  0  0  0  0  0  0  0  0  0
   -4.9205    1.7853    1.6101 C   0  0  0  0  0  0  0  0  0  0  0  0
   -5.2291    2.8332    0.7428 C   0  0  0  0  0  0  0  0  0  0  0  0
    1.9584   -0.1692    0.8711 H   0  0  0  0  0  0  0  0  0  0  0  0
    1.7560    1.1755   -1.1939 H   0  0  0  0  0  0  0  0  0  0  0  0
    3.4052    0.7928   -1.6438 H   0  0  0  0  0  0  0  0  0  0  0  0
    4.7898   -0.8434   -0.0261 H   0  0  0  0  0  0  0  0  0  0  0  0
    3.9778   -1.4402    1.4074 H   0  0  0  0  0  0  0  0  0  0  0  0
    3.2979    3.0175   -0.6158 H   0  0  0  0  0  0  0  0  0  0  0  0
    2.5496    2.3804    0.8472 H   0  0  0  0  0  0  0  0  0  0  0  0
    3.8607    0.8644    2.3541 H   0  0  0  0  0  0  0  0  0  0  0  0
    5.5255    0.4554    1.9314 H   0  0  0  0  0  0  0  0  0  0  0  0
   -0.0186   -0.3928   -0.7123 H   0  0  0  0  0  0  0  0  0  0  0  0
    4.8028    4.3805   -0.4003 H   0  0  0  0  0  0  0  0  0  0  0  0
    0.1418   -5.1938    0.4930 H   0  0  0  0  0  0  0  0  0  0  0  0
    6.8053    5.0366   -1.5863 H   0  0  0  0  0  0  0  0  0  0  0  0
    7.7259    3.5675   -0.9349 H   0  0  0  0  0  0  0  0  0  0  0  0
   -2.0079    0.0915   -1.2772 H   0  0  0  0  0  0  0  0  0  0  0  0
   -4.3249   -4.0162    0.7544 H   0  0  0  0  0  0  0  0  0  0  0  0
    3.8258   -5.2444   -1.1057 H   0  0  0  0  0  0  0  0  0  0  0  0
    2.9847   -4.0172   -2.0779 H   0  0  0  0  0  0  0  0  0  0  0  0
    2.1357   -5.5186   -1.5832 H   0  0  0  0  0  0  0  0  0  0  0  0
   -3.7926   -0.0069    1.9118 H   0  0  0  0  0  0  0  0  0  0  0  0
   -5.3646    1.7297    2.6008 H   0  0  0  0  0  0  0  0  0  0  0  0
  1 31  1  0  0  0  0
  2 33  1  0  0  0  0
  3 29  1  0  0  0  0
  4 11  1  0  0  0  0
  4 17  1  0  0  0  0
  5 16  2  0  0  0  0
  6 19  1  0  0  0  0
  6 28  1  0  0  0  0
  7 14  1  0  0  0  0
  7 15  1  0  0  0  0
  7 16  1  0  0  0  0
  8 22  1  0  0  0  0
  8 26  2  0  0  0  0
  9 24  1  0  0  0  0
  9 27  1  0  0  0  0
  9 48  1  0  0  0  0
 10 24  2  0  0  0  0
 10 26  1  0  0  0  0
 11 12  1  0  0  0  0
 11 13  1  0  0  0  0
 11 34  1  0  0  0  0
 12 14  1  0  0  0  0
 12 35  1  0  0  0  0
 12 36  1  0  0  0  0
 13 15  1  0  0  0  0
 13 37  1  0  0  0  0
 13 38  1  0  0  0  0
 14 39  1  0  0  0  0
 14 40  1  0  0  0  0
 15 41  1  0  0  0  0
 15 42  1  0  0  0  0
 16 21  1  0  0  0  0
 17 18  1  0  0  0  0
 17 19  2  0  0  0  0
 18 20  2  0  0  0  0
 18 43  1  0  0  0  0
 19 23  1  0  0  0  0
 20 22  1  0  0  0  0
 20 24  1  0  0  0  0
 21 25  2  0  0  0  0
 21 44  1  0  0  0  0
 22 23  2  0  0  0  0
 23 45  1  0  0  0  0
 25 46  1  0  0  0  0
 25 47  1  0  0  0  0
 26 49  1  0  0  0  0
 27 29  2  0  0  0  0
 27 30  1  0  0  0  0
 28 50  1  0  0  0  0
 28 51  1  0  0  0  0
 28 52  1  0  0  0  0
 29 31  1  0  0  0  0
 30 32  2  0  0  0  0
 30 53  1  0  0  0  0
 31 33  2  0  0  0  0
 32 33  1  0  0  0  0
 32 54  1  0  0  0  0
M  END
> <PUBCHEM_COMPOUND_CID>
25127713

> <PUBCHEM_CONFORMER_RMSD>
1

> <PUBCHEM_CONFORMER_DIVERSEORDER>
1
41
48
80
27
86
52
100
78
34
57
97
56
77
113
16
30
22
68
28
73
12
20
88
108
85
70
87
103
92
89
71
43
59
105
62
33
102
35
66
8
19
63
82
9
45
90
31
55
26
50
60
23
101
61
18
65
11
51
17
74
81
83
37
95
42
38
91
107
104
93
36
72
99
112
6
96
94
106
14
46
24
69
53
40
39
32
7
98
21
13
109
44
64
79
75
15
10
54
2
111
47
67
3
76
114
49
5
4
25
110
84
29
58

> <PUBCHEM_MMFF94_PARTIAL_CHARGES>
39
1 -0.18
10 -0.62
11 0.28
14 0.3
15 0.3
16 0.62
17 0.08
18 -0.15
19 0.08
2 -0.18
21 -0.14
22 0.31
23 -0.15
24 0.41
25 -0.3
26 0.47
27 0.1
28 0.28
29 0.19
3 -0.19
30 -0.15
31 0.18
32 -0.15
33 0.18
4 -0.36
43 0.15
44 0.15
45 0.15
46 0.15
47 0.15
48 0.4
49 0.15
5 -0.57
53 0.15
54 0.15
6 -0.36
7 -0.66
8 -0.62
9 -0.6

> <PUBCHEM_EFFECTIVE_ROTOR_COUNT>
8.2

> <PUBCHEM_PHARMACOPHORE_FEATURES>
11
1 25 hydrophobe
1 4 acceptor
1 5 acceptor
1 6 acceptor
1 9 donor
3 8 10 26 cation
3 9 10 24 cation
6 17 18 19 20 22 23 rings
6 27 29 30 31 32 33 rings
6 7 11 12 13 14 15 rings
6 8 10 20 22 24 26 rings

> <PUBCHEM_HEAVY_ATOM_COUNT>
33

> <PUBCHEM_ATOM_DEF_STEREO_COUNT>
0

> <PUBCHEM_ATOM_UDEF_STEREO_COUNT>
0

> <PUBCHEM_BOND_DEF_STEREO_COUNT>
0

> <PUBCHEM_BOND_UDEF_STEREO_COUNT>
0

> <PUBCHEM_ISOTOPIC_ATOM_COUNT>
0

> <PUBCHEM_COMPONENT_COUNT>
1

> <PUBCHEM_CACTVS_TAUTO_COUNT>
3

> <PUBCHEM_CONFORMER_ID>
017F6B2100000001

> <PUBCHEM_MMFF94_ENERGY>
120.0277

> <PUBCHEM_FEATURE_SELFOVERLAP>
55.997

> <PUBCHEM_SHAPE_FINGERPRINT>
10675989 125 18196653982236505904
11059845 2 18195497455803488920
11479125 193 18269285577690450449
12107183 9 18262500526042673794
13726171 33 18339929328386784648
13965767 371 18113894914592170766
14068700 686 18269843162649618695
14251764 75 18411421683042562793
14347329 18 18269550701794872648
14790565 3 18265332988249737492
14849402 71 18123756357098753434
15326921 28 18197478822695646728
15338160 23 18263928915320257033
15439362 3 18268993090068938568
16067689 391 11712476937841515121
16728433 281 18266475376663500908
1768 85 18121786028573414449
18393751 57 18260833666472974137
19246450 95 17610584598355447072
19304671 126 17631465496250658500
19309040 13 18059857229654614957
20691028 202 18412548682276637728
21033648 29 17825391774094969413
21133410 127 18259706692160404100
21987440 362 18410017663361281628
21987483 16 18114473267490624875
23522609 53 17678745760062631940
23559900 14 18199188386904207990
283562 15 18265889340928098987
376196 1 18341048523564866635
4144715 1 18336269050357600314
4353968 344 18129373977223256166
4756326 101 16589405538087365277
53794403 172 18339362933557737487
57527585 21 18127390436429020447
57724786 102 18126845993568239745
6371009 1 18193546981366482301
7808743 9 18338514252494285672
7970288 3 9980114204659592785
9849439 229 18410017619631197853
9896288 288 18191587669543579722
9961470 85 18340484452560891872

> <PUBCHEM_SHAPE_MULTIPOLES>
638.06
15.89
8.13
1.32
6.44
3.49
0.12
-28.24
-2.6
1.91
1.21
-0.86
-1.02
0.91

> <PUBCHEM_SHAPE_SELFOVERLAP>
1363.666

> <PUBCHEM_SHAPE_VOLUME>
355.1

> <PUBCHEM_COORDINATE_TYPE>
2
5
10

$$$$
25181472
  -OEChem-11282412143D

 70 74  0     0  0  0  0  0  0999 V2000
   -3.2619    1.4469   -0.8813 S   0  0  0  0  0  0  0  0  0  0  0  0
    3.9091   -1.8623    2.2944 S   0  0  0  0  0  0  0  0  0  0  0  0
    2.2981    3.2016   -2.0293 F   0  0  0  0  0  0  0  0  0  0  0  0
   12.9513    0.1299    0.2694 F   0  0  0  0  0  0  0  0  0  0  0  0
   -0.1883    2.3480   -1.1802 O   0  0  0  0  0  0  0  0  0  0  0  0
  -12.9345   -3.9288    0.2013 O   0  0  0  0  0  0  0  0  0  0  0  0
    6.8414   -1.3571   -1.3228 O   0  0  0  0  0  0  0  0  0  0  0  0
   -9.9348   -1.8221   -0.0953 N   0  0  0  0  0  0  0  0  0  0  0  0
   -5.7143   -0.1584   -0.8441 N   0  0  0  0  0  0  0  0  0  0  0  0
   -2.3508    3.6981    2.1580 N   0  0  0  0  0  0  0  0  0  0  0  0
    4.3650   -0.6957   -0.1849 N   0  0  0  0  0  0  0  0  0  0  0  0
    6.0158   -2.1271    0.7360 N   0  0  0  0  0  0  0  0  0  0  0  0
   -4.5919    1.6436    0.1722 C   0  0  0  0  0  0  0  0  0  0  0  0
   -2.2489    2.4291    0.1005 C   0  0  0  0  0  0  0  0  0  0  0  0
   -9.3470   -1.0875   -1.2188 C   0  0  0  0  0  0  0  0  0  0  0  0
   -8.1257   -0.3330   -0.8300 C   0  0  0  0  0  0  0  0  0  0  0  0
   -5.8410    0.9960   -0.1518 C   0  0  0  0  0  0  0  0  0  0  0  0
   -2.9336    2.8981    1.2226 C   0  0  0  0  0  0  0  0  0  0  0  0
   -4.2848    2.4382    1.2526 C   0  0  0  0  0  0  0  0  0  0  0  0
   -0.9060    2.7789   -0.0989 C   0  0  0  0  0  0  0  0  0  0  0  0
   -8.2152    0.8579   -0.1179 C   0  0  0  0  0  0  0  0  0  0  0  0
   -7.0557    1.5413    0.2316 C   0  0  0  0  0  0  0  0  0  0  0  0
  -11.1290   -2.5346   -0.5183 C   0  0  0  0  0  0  0  0  0  0  0  0
   -6.8631   -0.7945   -1.1659 C   0  0  0  0  0  0  0  0  0  0  0  0
   -0.3063    3.5945    0.8519 C   0  0  0  0  0  0  0  0  0  0  0  0
  -11.7642   -3.2621    0.6560 C   0  0  0  0  0  0  0  0  0  0  0  0
   -1.0594    4.0129    1.9328 C   0  0  0  0  0  0  0  0  0  0  0  0
    0.9423    1.5923   -0.9346 C   0  0  0  0  0  0  0  0  0  0  0  0
    3.2238    0.0664   -0.4357 C   0  0  0  0  0  0  0  0  0  0  0  0
    2.1896    2.0399   -1.3698 C   0  0  0  0  0  0  0  0  0  0  0  0
    0.8357    0.3816   -0.2498 C   0  0  0  0  0  0  0  0  0  0  0  0
    3.3303    1.2770   -1.1203 C   0  0  0  0  0  0  0  0  0  0  0  0
    1.9763   -0.3812   -0.0005 C   0  0  0  0  0  0  0  0  0  0  0  0
    8.1888   -2.8698    0.0024 C   0  0  0  0  0  0  0  0  0  0  0  0
    9.4617   -2.0685    0.0737 C   0  0  0  0  0  0  0  0  0  0  0  0
    6.9643   -2.0259   -0.3009 C   0  0  0  0  0  0  0  0  0  0  0  0
   10.2256   -1.8688   -1.0762 C   0  0  0  0  0  0  0  0  0  0  0  0
    9.8767   -1.5255    1.2897 C   0  0  0  0  0  0  0  0  0  0  0  0
    4.7475   -1.5291    0.8793 C   0  0  0  0  0  0  0  0  0  0  0  0
   11.4044   -1.1261   -1.0102 C   0  0  0  0  0  0  0  0  0  0  0  0
   11.0555   -0.7828    1.3558 C   0  0  0  0  0  0  0  0  0  0  0  0
  -13.5661   -4.6482    1.2515 C   0  0  0  0  0  0  0  0  0  0  0  0
   11.8194   -0.5832    0.2058 C   0  0  0  0  0  0  0  0  0  0  0  0
  -10.0778   -0.3766   -1.6267 H   0  0  0  0  0  0  0  0  0  0  0  0
   -9.1078   -1.7818   -2.0350 H   0  0  0  0  0  0  0  0  0  0  0  0
   -4.9848    2.6843    2.0421 H   0  0  0  0  0  0  0  0  0  0  0  0
   -9.1820    1.2635    0.1678 H   0  0  0  0  0  0  0  0  0  0  0  0
   -9.2540   -2.4879    0.2703 H   0  0  0  0  0  0  0  0  0  0  0  0
   -7.1290    2.4741    0.7809 H   0  0  0  0  0  0  0  0  0  0  0  0
  -10.8950   -3.2602   -1.3076 H   0  0  0  0  0  0  0  0  0  0  0  0
  -11.8658   -1.8400   -0.9414 H   0  0  0  0  0  0  0  0  0  0  0  0
   -6.7260   -1.7183   -1.7194 H   0  0  0  0  0  0  0  0  0  0  0  0
    0.7266    3.9135    0.7578 H   0  0  0  0  0  0  0  0  0  0  0  0
  -12.0353   -2.5488    1.4440 H   0  0  0  0  0  0  0  0  0  0  0  0
  -11.0637   -3.9968    1.0717 H   0  0  0  0  0  0  0  0  0  0  0  0
   -0.6136    4.6533    2.6888 H   0  0  0  0  0  0  0  0  0  0  0  0
   -0.1311    0.0073    0.0758 H   0  0  0  0  0  0  0  0  0  0  0  0
    4.2959    1.6388   -1.4643 H   0  0  0  0  0  0  0  0  0  0  0  0
    1.8356   -1.3448    0.4755 H   0  0  0  0  0  0  0  0  0  0  0  0
    8.0706   -3.4430    0.9297 H   0  0  0  0  0  0  0  0  0  0  0  0
    8.2659   -3.6244   -0.7913 H   0  0  0  0  0  0  0  0  0  0  0  0
    5.1441   -0.4398   -0.7868 H   0  0  0  0  0  0  0  0  0  0  0  0
    9.9121   -2.2851   -2.0299 H   0  0  0  0  0  0  0  0  0  0  0  0
    9.2887   -1.6728    2.1917 H   0  0  0  0  0  0  0  0  0  0  0  0
    6.2693   -2.7177    1.5241 H   0  0  0  0  0  0  0  0  0  0  0  0
   11.9991   -0.9700   -1.9054 H   0  0  0  0  0  0  0  0  0  0  0  0
   11.3787   -0.3594    2.3022 H   0  0  0  0  0  0  0  0  0  0  0  0
  -14.4572   -5.1358    0.8473 H   0  0  0  0  0  0  0  0  0  0  0  0
  -13.8732   -3.9681    2.0521 H   0  0  0  0  0  0  0  0  0  0  0  0
  -12.8961   -5.4179    1.6466 H   0  0  0  0  0  0  0  0  0  0  0  0
  1 13  1  0  0  0  0
  1 14  1  0  0  0  0
  2 39  2  0  0  0  0
  3 30  1  0  0  0  0
  4 43  1  0  0  0  0
  5 20  1  0  0  0  0
  5 28  1  0  0  0  0
  6 26  1  0  0  0  0
  6 42  1  0  0  0  0
  7 36  2  0  0  0  0
  8 15  1  0  0  0  0
  8 23  1  0  0  0  0
  8 48  1  0  0  0  0
  9 17  2  0  0  0  0
  9 24  1  0  0  0  0
 10 18  2  0  0  0  0
 10 27  1  0  0  0  0
 11 29  1  0  0  0  0
 11 39  1  0  0  0  0
 11 62  1  0  0  0  0
 12 36  1  0  0  0  0
 12 39  1  0  0  0  0
 12 65  1  0  0  0  0
 13 17  1  0  0  0  0
 13 19  2  0  0  0  0
 14 18  1  0  0  0  0
 14 20  2  0  0  0  0
 15 16  1  0  0  0  0
 15 44  1  0  0  0  0
 15 45  1  0  0  0  0
 16 21  1  0  0  0  0
 16 24  2  0  0  0  0
 17 22  1  0  0  0  0
 18 19  1  0  0  0  0
 19 46  1  0  0  0  0
 20 25  1  0  0  0  0
 21 22  2  0  0  0  0
 21 47  1  0  0  0  0
 22 49  1  0  0  0  0
 23 26  1  0  0  0  0
 23 50  1  0  0  0  0
 23 51  1  0  0  0  0
 24 52  1  0  0  0  0
 25 27  2  0  0  0  0
 25 53  1  0  0  0  0
 26 54  1  0  0  0  0
 26 55  1  0  0  0  0
 27 56  1  0  0  0  0
 28 30  2  0  0  0  0
 28 31  1  0  0  0  0
 29 32  2  0  0  0  0
 29 33  1  0  0  0  0
 30 32  1  0  0  0  0
 31 33  2  0  0  0  0
 31 57  1  0  0  0  0
 32 58  1  0  0  0  0
 33 59  1  0  0  0  0
 34 35  1  0  0  0  0
 34 36  1  0  0  0  0
 34 60  1  0  0  0  0
 34 61  1  0  0  0  0
 35 37  2  0  0  0  0
 35 38  1  0  0  0  0
 37 40  1  0  0  0  0
 37 63  1  0  0  0  0
 38 41  2  0  0  0  0
 38 64  1  0  0  0  0
 40 43  2  0  0  0  0
 40 66  1  0  0  0  0
 41 43  1  0  0  0  0
 41 67  1  0  0  0  0
 42 68  1  0  0  0  0
 42 69  1  0  0  0  0
 42 70  1  0  0  0  0
M  END
> <PUBCHEM_COMPOUND_CID>
25181472

> <PUBCHEM_CONFORMER_RMSD>
1.4

> <PUBCHEM_CONFORMER_DIVERSEORDER>
1
22
8
74
73
63
55
25
32
70
37
69
17
52
77
29
98
75
53
15
91
26
68
72
60
76
89
43
92
94
23
95
48
14
11
82
31
13
39
66
79
45
27
83
71
35
84
12
28
30
61
19
50
80
10
56
33
58
88
47
38
99
59
20
2
42
41
86
64
57
46
49
16
65
78
67
97
81
51
44
24
87
36
93
3
34
6
90
85
5
21
54
9
4
18
40
62
96
7

> <PUBCHEM_MMFF94_PARTIAL_CHARGES>
59
1 -0.08
10 -0.57
11 -0.55
12 -0.49
13 -0.01
14 0.04
15 0.41
16 -0.14
17 0.36
18 0.26
19 -0.15
2 -0.38
20 0.08
21 -0.15
22 -0.15
23 0.27
24 0.16
25 -0.15
26 0.28
27 0.16
28 0.08
29 0.12
3 -0.19
30 0.19
31 -0.15
32 -0.15
33 -0.15
34 0.2
35 -0.14
36 0.57
37 -0.15
38 -0.15
39 0.5
4 -0.19
40 -0.15
41 -0.15
42 0.28
43 0.19
46 0.15
47 0.15
48 0.36
49 0.15
5 -0.17
52 0.15
53 0.15
56 0.15
57 0.15
58 0.15
59 0.15
6 -0.56
62 0.37
63 0.15
64 0.15
65 0.37
66 0.15
67 0.15
7 -0.57
8 -0.9
9 -0.62

> <PUBCHEM_EFFECTIVE_ROTOR_COUNT>
14

> <PUBCHEM_PHARMACOPHORE_FEATURES>
15
1 10 acceptor
1 11 donor
1 12 donor
1 2 acceptor
1 5 acceptor
1 6 acceptor
1 7 acceptor
1 8 cation
1 8 donor
1 9 acceptor
5 1 13 14 18 19 rings
6 10 14 18 20 25 27 rings
6 28 29 30 31 32 33 rings
6 35 37 38 40 41 43 rings
6 9 16 17 21 22 24 rings

> <PUBCHEM_HEAVY_ATOM_COUNT>
43

> <PUBCHEM_ATOM_DEF_STEREO_COUNT>
0

> <PUBCHEM_ATOM_UDEF_STEREO_COUNT>
0

> <PUBCHEM_BOND_DEF_STEREO_COUNT>
0

> <PUBCHEM_BOND_UDEF_STEREO_COUNT>
0

> <PUBCHEM_ISOTOPIC_ATOM_COUNT>
0

> <PUBCHEM_COMPONENT_COUNT>
1

> <PUBCHEM_CACTVS_TAUTO_COUNT>
5

> <PUBCHEM_CONFORMER_ID>
01803D2000000001

> <PUBCHEM_MMFF94_ENERGY>
126.4328

> <PUBCHEM_FEATURE_SELFOVERLAP>
76.237

> <PUBCHEM_SHAPE_FINGERPRINT>
10100884 174 18413385427836853847
10162869 55 17822016377083612678
10533779 1 8646776586916539727
11146346 171 17346041053616519926
11607047 191 11743843569314395141
11672396 167 18335421292885676639
12013929 94 18272087172030068310
14671636 106 18343299237273123620
14918687 75 18342735204850845926
15684389 69 18187927210940477648
17686467 74 18130497545073659056
21057603 130 18260268529917034013
21130935 74 17983577395856517158
21987483 16 18271803566185700601
3418910 222 17632017434947202888
3986486 107 15430032141954891909
4173938 188 18408882911315780056
4760202 170 11891341937594569622
4760202 70 18261682494024036100
4874694 18 13767933382536618416
54039377 194 18410011022925110183
57303763 176 9007061271281631022
57303763 39 18342177778436707902
57828716 42 18408603682733954878
636783 126 17275110518092681054
9962374 69 18187366520208990836

> <PUBCHEM_SHAPE_MULTIPOLES>
835.56
53.51
5.18
1.61
6.21
0.08
0.45
81.82
2.95
14.15
2.21
-0.7
-0.56
-0.08

> <PUBCHEM_SHAPE_SELFOVERLAP>
1787.885

> <PUBCHEM_SHAPE_VOLUME>
468.2

> <PUBCHEM_COORDINATE_TYPE>
2
5
10

$$$$
46851625
  -OEChem-11282412143D

 47 50  0     0  0  0  0  0  0999 V2000
    3.7963    2.9282    0.9808 F   0  0  0  0  0  0  0  0  0  0  0  0
   -3.6257    3.5078   -0.2648 O   0  0  0  0  0  0  0  0  0  0  0  0
    5.2200    1.3841   -0.7858 O   0  0  0  0  0  0  0  0  0  0  0  0
   -2.1085    4.9778   -1.2060 O   0  0  0  0  0  0  0  0  0  0  0  0
   -2.5527   -1.8845    0.4393 N   0  0  0  0  0  0  0  0  0  0  0  0
   -1.5754    2.7241   -0.9461 N   0  0  0  0  0  0  0  0  0  0  0  0
    2.1100   -2.2293   -0.1262 N   0  0  0  0  0  0  0  0  0  0  0  0
   -0.2115   -2.0427    0.1605 N   0  0  0  0  0  0  0  0  0  0  0  0
    0.7932   -4.1417   -0.4657 N   0  0  0  0  0  0  0  0  0  0  0  0
   -2.8547   -0.5148    0.2727 C   0  0  0  0  0  0  0  0  0  0  0  0
   -2.2681    1.6598   -0.4331 C   0  0  0  0  0  0  0  0  0  0  0  0
   -3.4926    2.1479   -0.0304 C   0  0  0  0  0  0  0  0  0  0  0  0
   -1.9083    0.3379   -0.3004 C   0  0  0  0  0  0  0  0  0  0  0  0
   -1.4148   -2.6525    0.1316 C   0  0  0  0  0  0  0  0  0  0  0  0
   -4.1105   -0.0256    0.6880 C   0  0  0  0  0  0  0  0  0  0  0  0
    2.5382   -0.9189    0.1560 C   0  0  0  0  0  0  0  0  0  0  0  0
   -1.5920   -3.9845   -0.1826 C   0  0  0  0  0  0  0  0  0  0  0  0
   -4.4412    1.3251    0.5371 C   0  0  0  0  0  0  0  0  0  0  0  0
    2.2438    1.1706    1.3325 C   0  0  0  0  0  0  0  0  0  0  0  0
    0.8343   -2.8347   -0.1440 C   0  0  0  0  0  0  0  0  0  0  0  0
    1.8199   -0.1285    1.0533 C   0  0  0  0  0  0  0  0  0  0  0  0
    3.6805   -0.4100   -0.4619 C   0  0  0  0  0  0  0  0  0  0  0  0
    4.1045    0.8891   -0.1828 C   0  0  0  0  0  0  0  0  0  0  0  0
    3.3861    1.6795    0.7144 C   0  0  0  0  0  0  0  0  0  0  0  0
   -0.4408   -4.6870   -0.4755 C   0  0  0  0  0  0  0  0  0  0  0  0
   -2.3894    3.8411   -0.8474 C   0  0  0  0  0  0  0  0  0  0  0  0
   -2.9198   -4.6520   -0.2146 C   0  0  0  0  0  0  0  0  0  0  0  0
    1.4742    2.0132    2.2929 C   0  0  0  0  0  0  0  0  0  0  0  0
    5.9051    0.5206   -1.6919 C   0  0  0  0  0  0  0  0  0  0  0  0
   -0.9419    0.0229   -0.6660 H   0  0  0  0  0  0  0  0  0  0  0  0
   -3.2923   -2.4045    0.9020 H   0  0  0  0  0  0  0  0  0  0  0  0
   -4.8404   -0.6984    1.1329 H   0  0  0  0  0  0  0  0  0  0  0  0
   -5.4057    1.7026    0.8557 H   0  0  0  0  0  0  0  0  0  0  0  0
   -0.6375    2.6888   -1.3256 H   0  0  0  0  0  0  0  0  0  0  0  0
    0.9552   -0.5121    1.5853 H   0  0  0  0  0  0  0  0  0  0  0  0
    2.8338   -2.8399   -0.4931 H   0  0  0  0  0  0  0  0  0  0  0  0
    4.1997   -1.0677   -1.1517 H   0  0  0  0  0  0  0  0  0  0  0  0
   -0.4664   -5.7406   -0.7351 H   0  0  0  0  0  0  0  0  0  0  0  0
   -3.3428   -4.7147    0.7933 H   0  0  0  0  0  0  0  0  0  0  0  0
   -3.6133   -4.1099   -0.8662 H   0  0  0  0  0  0  0  0  0  0  0  0
   -2.8474   -5.6734   -0.6047 H   0  0  0  0  0  0  0  0  0  0  0  0
    1.9713    2.0219    3.2679 H   0  0  0  0  0  0  0  0  0  0  0  0
    1.3913    3.0421    1.9267 H   0  0  0  0  0  0  0  0  0  0  0  0
    0.4534    1.6397    2.4285 H   0  0  0  0  0  0  0  0  0  0  0  0
    6.2996   -0.3657   -1.1834 H   0  0  0  0  0  0  0  0  0  0  0  0
    5.2798    0.2628   -2.5534 H   0  0  0  0  0  0  0  0  0  0  0  0
    6.7662    1.0760   -2.0780 H   0  0  0  0  0  0  0  0  0  0  0  0
  1 24  1  0  0  0  0
  2 12  1  0  0  0  0
  2 26  1  0  0  0  0
  3 23  1  0  0  0  0
  3 29  1  0  0  0  0
  4 26  2  0  0  0  0
  5 10  1  0  0  0  0
  5 14  1  0  0  0  0
  5 31  1  0  0  0  0
  6 11  1  0  0  0  0
  6 26  1  0  0  0  0
  6 34  1  0  0  0  0
  7 16  1  0  0  0  0
  7 20  1  0  0  0  0
  7 36  1  0  0  0  0
  8 14  2  0  0  0  0
  8 20  1  0  0  0  0
  9 20  2  0  0  0  0
  9 25  1  0  0  0  0
 10 13  2  0  0  0  0
 10 15  1  0  0  0  0
 11 12  2  0  0  0  0
 11 13  1  0  0  0  0
 12 18  1  0  0  0  0
 13 30  1  0  0  0  0
 14 17  1  0  0  0  0
 15 18  2  0  0  0  0
 15 32  1  0  0  0  0
 16 21  1  0  0  0  0
 16 22  2  0  0  0  0
 17 25  2  0  0  0  0
 17 27  1  0  0  0  0
 18 33  1  0  0  0  0
 19 21  2  0  0  0  0
 19 24  1  0  0  0  0
 19 28  1  0  0  0  0
 21 35  1  0  0  0  0
 22 23  1  0  0  0  0
 22 37  1  0  0  0  0
 23 24  2  0  0  0  0
 25 38  1  0  0  0  0
 27 39  1  0  0  0  0
 27 40  1  0  0  0  0
 27 41  1  0  0  0  0
 28 42  1  0  0  0  0
 28 43  1  0  0  0  0
 28 44  1  0  0  0  0
 29 45  1  0  0  0  0
 29 46  1  0  0  0  0
 29 47  1  0  0  0  0
M  END
> <PUBCHEM_COMPOUND_CID>
46851625

> <PUBCHEM_CONFORMER_RMSD>
1

> <PUBCHEM_CONFORMER_DIVERSEORDER>
2
58
73
126
61
44
97
120
92
62
131
130
90
124
65
107
81
10
64
5
118
125
96
23
1
115
119
53
51
104
9
91
47
67
74
16
121
102
76
109
110
99
112
17
132
100
42
50
108
78
52
22
122
71
29
133
18
86
85
48
66
70
43
94
26
46
93
129
38
35
34
127
87
83
63
111
4
41
113
27
37
55
79
103
68
106
84
11
117
116
128
28
101
80
25
36
3
56
59
123
31
77
21
39
13
88
19
105
30
75
20
33
12
60
49
6
24
32
98
72
89
54
14
82
69
8
114
95
40
7
45
15
57

> <PUBCHEM_MMFF94_PARTIAL_CHARGES>
38
1 -0.19
10 0.1
11 0.12
12 0.08
13 -0.15
14 0.41
15 -0.15
16 0.1
17 -0.14
18 -0.15
19 -0.14
2 -0.23
20 0.72
21 -0.15
22 -0.15
23 0.08
24 0.19
25 0.16
26 0.78
27 0.14
28 0.14
29 0.28
3 -0.36
30 0.15
31 0.4
32 0.15
33 0.15
34 0.37
35 0.15
36 0.4
37 0.15
38 0.15
4 -0.57
5 -0.6
6 -0.55
7 -0.6
8 -0.62
9 -0.62

> <PUBCHEM_EFFECTIVE_ROTOR_COUNT>
5

> <PUBCHEM_PHARMACOPHORE_FEATURES>
10
1 3 acceptor
1 4 acceptor
1 5 donor
1 6 donor
1 7 donor
4 7 8 9 20 cation
5 2 6 11 12 26 rings
6 10 11 12 13 15 18 rings
6 16 19 21 22 23 24 rings
6 8 9 14 17 20 25 rings

> <PUBCHEM_HEAVY_ATOM_COUNT>
29

> <PUBCHEM_ATOM_DEF_STEREO_COUNT>
0

> <PUBCHEM_ATOM_UDEF_STEREO_COUNT>
0

> <PUBCHEM_BOND_DEF_STEREO_COUNT>
0

> <PUBCHEM_BOND_UDEF_STEREO_COUNT>
0

> <PUBCHEM_ISOTOPIC_ATOM_COUNT>
0

> <PUBCHEM_COMPONENT_COUNT>
1

> <PUBCHEM_CACTVS_TAUTO_COUNT>
18

> <PUBCHEM_CONFORMER_ID>
02CAE62900000002

> <PUBCHEM_MMFF94_ENERGY>
115.1597

> <PUBCHEM_FEATURE_SELFOVERLAP>
50.863

> <PUBCHEM_SHAPE_FINGERPRINT>
10006869 2 18337096961017581939
10165383 225 18341909475670747361
10498660 4 18192418891037069166
10670039 82 18335425716068781180
1100329 8 17688872360352873851
11014199 57 17690002657688698370
11211813 163 18263662740193026644
12156800 1 15974475304161422267
1361 2 18411127066182850705
138480 1 17330553142472193367
140371 6 17474948104834171067
14114211 80 18199206021981253705
14251757 5 18339371850273905808
14466204 15 17760076320375703842
14930077 153 17827388723804042956
14955137 171 17543360805015356275
151778 21 18194684765506023921
15210252 30 17111286313215564146
15230672 131 18336273337077898606
15961568 22 17474385155281416516
17977149 70 18267590289610677920
19930381 70 18051127000182497121
21033650 10 18044679683568013206
21133410 127 17680158373962469804
21860390 5 17262143736795046207
221357 26 17842566420493982538
23536364 44 17768269915944265702
23559900 14 17616248083849711055
238 59 17979323427563587079
3298306 158 18198054781418893127
469060 322 17977109290107825995
508706 21 18270954773568739970
5252454 2 18342178847318906547
53794403 172 17613719219901804773
54672768 99 18047749300124456420
6371009 1 18193812895787604799
6700243 42 17406037231934355662
7808743 9 18408890663373046188

> <PUBCHEM_SHAPE_MULTIPOLES>
547.02
9.29
7.01
1.23
9.15
3.24
-0.31
-5.84
1.73
-7.16
1.98
1.07
-0.99
1.32

> <PUBCHEM_SHAPE_SELFOVERLAP>
1207.476

> <PUBCHEM_SHAPE_VOLUME>
295.7

> <PUBCHEM_COORDINATE_TYPE>
2
5
10

$$$$
51039095
  -OEChem-11282412143D

 67 70  0     1  0  0  0  0  0999 V2000
   -0.5019   -0.2481    1.4130 O   0  0  0  0  0  0  0  0  0  0  0  0
   -6.3921   -3.2686    0.8818 O   0  0  0  0  0  0  0  0  0  0  0  0
   -3.3761   -1.7561   -2.4944 O   0  0  0  0  0  0  0  0  0  0  0  0
    5.7091   -0.2243    0.1409 N   0  0  0  0  0  0  0  0  0  0  0  0
    8.4525   -0.7772   -0.3964 N   0  0  0  0  0  0  0  0  0  0  0  0
   -0.3370    1.8110    0.2998 N   0  0  0  0  0  0  0  0  0  0  0  0
   -3.3647    3.4789   -0.0226 N   0  0  0  0  0  0  0  0  0  0  0  0
   -2.0399    3.4401   -0.2449 N   0  0  0  0  0  0  0  0  0  0  0  0
    7.8551   -1.1903    0.8776 C   0  0  1  0  0  0  0  0  0  0  0  0
    7.8490    0.4733   -0.8693 C   0  0  2  0  0  0  0  0  0  0  0  0
    6.3435   -1.4119    0.7238 C   0  0  0  0  0  0  0  0  0  0  0  0
    6.3382    0.2999   -1.0793 C   0  0  0  0  0  0  0  0  0  0  0  0
    8.5382   -2.4685    1.3604 C   0  0  0  0  0  0  0  0  0  0  0  0
    8.5276    0.8943   -2.1715 C   0  0  0  0  0  0  0  0  0  0  0  0
    4.3361   -0.0160    0.3128 C   0  0  0  0  0  0  0  0  0  0  0  0
    3.4753   -1.1058    0.4429 C   0  0  0  0  0  0  0  0  0  0  0  0
    3.8285    1.2826    0.3533 C   0  0  0  0  0  0  0  0  0  0  0  0
    2.1068   -0.8971    0.6136 C   0  0  0  0  0  0  0  0  0  0  0  0
    2.4599    1.4913    0.5240 C   0  0  0  0  0  0  0  0  0  0  0  0
    1.5991    0.4015    0.6543 C   0  0  0  0  0  0  0  0  0  0  0  0
    0.1725    0.6188    0.8335 C   0  0  0  0  0  0  0  0  0  0  0  0
   -5.2690    2.2389    0.9791 C   0  0  0  0  0  0  0  0  0  0  0  0
   -6.1215    1.5267   -0.1013 C   0  0  0  0  0  0  0  0  0  0  0  0
   -3.8446    2.3872    0.6398 C   0  0  0  0  0  0  0  0  0  0  0  0
   -1.6749    2.2767    0.3001 C   0  0  0  0  0  0  0  0  0  0  0  0
   -5.6858    0.1033   -0.3506 C   0  0  0  0  0  0  0  0  0  0  0  0
   -2.7581    1.5779    0.8659 C   0  0  0  0  0  0  0  0  0  0  0  0
   -4.7210   -0.1716   -1.3196 C   0  0  0  0  0  0  0  0  0  0  0  0
   -6.2475   -0.9374    0.3891 C   0  0  0  0  0  0  0  0  0  0  0  0
   -5.8445   -2.2530    0.1596 C   0  0  0  0  0  0  0  0  0  0  0  0
   -4.3179   -1.4872   -1.5491 C   0  0  0  0  0  0  0  0  0  0  0  0
   -4.8798   -2.5278   -0.8096 C   0  0  0  0  0  0  0  0  0  0  0  0
   -7.3724   -2.9164    1.8570 C   0  0  0  0  0  0  0  0  0  0  0  0
   -2.8429   -0.6451   -3.2137 C   0  0  0  0  0  0  0  0  0  0  0  0
    8.0313   -0.4068    1.6268 H   0  0  0  0  0  0  0  0  0  0  0  0
    8.0232    1.2610   -0.1241 H   0  0  0  0  0  0  0  0  0  0  0  0
    5.9240   -1.6222    1.7162 H   0  0  0  0  0  0  0  0  0  0  0  0
    6.1521   -2.2837    0.0840 H   0  0  0  0  0  0  0  0  0  0  0  0
    6.1385   -0.3929   -1.9079 H   0  0  0  0  0  0  0  0  0  0  0  0
    5.9149    1.2702   -1.3653 H   0  0  0  0  0  0  0  0  0  0  0  0
    9.4574   -0.6495   -0.2782 H   0  0  0  0  0  0  0  0  0  0  0  0
    9.6124   -2.3094    1.5060 H   0  0  0  0  0  0  0  0  0  0  0  0
    8.1182   -2.7919    2.3190 H   0  0  0  0  0  0  0  0  0  0  0  0
    8.4118   -3.2882    0.6441 H   0  0  0  0  0  0  0  0  0  0  0  0
    8.4012    0.1381   -2.9545 H   0  0  0  0  0  0  0  0  0  0  0  0
    9.6019    1.0507   -2.0225 H   0  0  0  0  0  0  0  0  0  0  0  0
    8.1041    1.8346   -2.5406 H   0  0  0  0  0  0  0  0  0  0  0  0
    3.8336   -2.1304    0.4004 H   0  0  0  0  0  0  0  0  0  0  0  0
    4.4860    2.1448    0.2765 H   0  0  0  0  0  0  0  0  0  0  0  0
    1.4528   -1.7605    0.7047 H   0  0  0  0  0  0  0  0  0  0  0  0
    2.1179    2.5197    0.5906 H   0  0  0  0  0  0  0  0  0  0  0  0
   -5.3573    1.6889    1.9252 H   0  0  0  0  0  0  0  0  0  0  0  0
   -5.7083    3.2278    1.1634 H   0  0  0  0  0  0  0  0  0  0  0  0
   -7.1744    1.5380    0.2082 H   0  0  0  0  0  0  0  0  0  0  0  0
   -6.0809    2.0922   -1.0415 H   0  0  0  0  0  0  0  0  0  0  0  0
    0.2821    2.4439   -0.1978 H   0  0  0  0  0  0  0  0  0  0  0  0
   -2.7810    0.6249    1.3727 H   0  0  0  0  0  0  0  0  0  0  0  0
   -3.8818    4.2842   -0.3530 H   0  0  0  0  0  0  0  0  0  0  0  0
   -4.3225    0.6727   -1.8722 H   0  0  0  0  0  0  0  0  0  0  0  0
   -6.9907   -0.6660    1.1315 H   0  0  0  0  0  0  0  0  0  0  0  0
   -4.5655   -3.5530   -0.9883 H   0  0  0  0  0  0  0  0  0  0  0  0
   -7.7000   -3.8453    2.3354 H   0  0  0  0  0  0  0  0  0  0  0  0
   -8.2574   -2.4666    1.3942 H   0  0  0  0  0  0  0  0  0  0  0  0
   -6.9480   -2.2844    2.6445 H   0  0  0  0  0  0  0  0  0  0  0  0
   -2.1073   -1.0416   -3.9212 H   0  0  0  0  0  0  0  0  0  0  0  0
   -2.3084    0.0444   -2.5511 H   0  0  0  0  0  0  0  0  0  0  0  0
   -3.6144   -0.1401   -3.8047 H   0  0  0  0  0  0  0  0  0  0  0  0
  1 21  2  0  0  0  0
  2 30  1  0  0  0  0
  2 33  1  0  0  0  0
  3 31  1  0  0  0  0
  3 34  1  0  0  0  0
  4 11  1  0  0  0  0
  4 12  1  0  0  0  0
  4 15  1  0  0  0  0
  5  9  1  0  0  0  0
  5 10  1  0  0  0  0
  5 41  1  0  0  0  0
  6 21  1  0  0  0  0
  6 25  1  0  0  0  0
  6 56  1  0  0  0  0
  7  8  1  0  0  0  0
  7 24  1  0  0  0  0
  7 58  1  0  0  0  0
  8 25  2  0  0  0  0
  9 11  1  0  0  0  0
  9 13  1  0  0  0  0
  9 35  1  0  0  0  0
 10 12  1  0  0  0  0
 10 14  1  0  0  0  0
 10 36  1  0  0  0  0
 11 37  1  0  0  0  0
 11 38  1  0  0  0  0
 12 39  1  0  0  0  0
 12 40  1  0  0  0  0
 13 42  1  0  0  0  0
 13 43  1  0  0  0  0
 13 44  1  0  0  0  0
 14 45  1  0  0  0  0
 14 46  1  0  0  0  0
 14 47  1  0  0  0  0
 15 16  2  0  0  0  0
 15 17  1  0  0  0  0
 16 18  1  0  0  0  0
 16 48  1  0  0  0  0
 17 19  2  0  0  0  0
 17 49  1  0  0  0  0
 18 20  2  0  0  0  0
 18 50  1  0  0  0  0
 19 20  1  0  0  0  0
 19 51  1  0  0  0  0
 20 21  1  0  0  0  0
 22 23  1  0  0  0  0
 22 24  1  0  0  0  0
 22 52  1  0  0  0  0
 22 53  1  0  0  0  0
 23 26  1  0  0  0  0
 23 54  1  0  0  0  0
 23 55  1  0  0  0  0
 24 27  2  0  0  0  0
 25 27  1  0  0  0  0
 26 28  2  0  0  0  0
 26 29  1  0  0  0  0
 27 57  1  0  0  0  0
 28 31  1  0  0  0  0
 28 59  1  0  0  0  0
 29 30  2  0  0  0  0
 29 60  1  0  0  0  0
 30 32  1  0  0  0  0
 31 32  2  0  0  0  0
 32 61  1  0  0  0  0
 33 62  1  0  0  0  0
 33 63  1  0  0  0  0
 33 64  1  0  0  0  0
 34 65  1  0  0  0  0
 34 66  1  0  0  0  0
 34 67  1  0  0  0  0
M  END
> <PUBCHEM_COMPOUND_CID>
51039095

> <PUBCHEM_CONFORMER_RMSD>
1

> <PUBCHEM_CONFORMER_DIVERSEORDER>
1
217
132
15
210
252
214
239
125
107
240
41
226
140
249
213
66
114
220
256
238
63
113
237
110
202
65
121
81
230
234
241
101
201
257
216
222
151
183
172
51
212
211
196
208
258
142
219
112
109
255
162
224
84
60
47
193
79
231
163
82
169
200
56
156
18
188
139
75
128
154
246
71
253
203
254
54
250
44
190
52
204
122
215
33
161
157
94
42
64
12
48
199
179
39
181
221
171
97
152
123
228
6
13
225
180
91
93
3
119
259
89
32
209
244
68
135
58
187
176
182
262
251
155
186
184
14
131
104
35
34
16
30
50
173
129
185
2
87
177
243
53
127
67
178
148
124
247
95
164
45
159
38
242
198
28
236
10
165
4
245
70
194
147
80
105
232
118
158
168
223
29
120
59
167
102
175
55
57
106
26
174
96
126
5
24
86
229
153
189
49
149
141
17
100
90
98
116
103
74
62
40
31
11
69
72
137
144
143
117
150
138
36
19
77
43
134
9
136
46
227
111
25
83
61
99
37
7
78
73
20
192
197
233
85
235
88
76
261
8
218
108
145
207
27
21
260
166
23
205
115
92
22
170
195
248
146
191
133
160
130
206

> <PUBCHEM_MMFF94_PARTIAL_CHARGES>
43
1 -0.57
10 0.27
11 0.37
12 0.37
15 0.1
16 -0.15
17 -0.15
18 -0.15
19 -0.15
2 -0.36
20 0.09
21 0.54
22 0.18
23 0.14
24 -0.33
25 0.35
26 -0.14
27 -0.15
28 -0.15
29 -0.15
3 -0.36
30 0.08
31 0.08
32 -0.15
33 0.28
34 0.28
4 -0.84
41 0.36
48 0.15
49 0.15
5 -0.9
50 0.15
51 0.15
56 0.37
57 0.15
58 0.27
59 0.15
6 -0.49
60 0.15
61 0.15
7 0.3
8 -0.71
9 0.27

> <PUBCHEM_EFFECTIVE_ROTOR_COUNT>
10.2

> <PUBCHEM_PHARMACOPHORE_FEATURES>
12
1 1 acceptor
1 2 acceptor
1 3 acceptor
1 4 cation
1 5 cation
1 5 donor
1 6 donor
1 7 donor
5 7 8 24 25 27 rings
6 15 16 17 18 19 20 rings
6 26 28 29 30 31 32 rings
6 4 5 9 10 11 12 rings

> <PUBCHEM_HEAVY_ATOM_COUNT>
34

> <PUBCHEM_ATOM_DEF_STEREO_COUNT>
2

> <PUBCHEM_ATOM_UDEF_STEREO_COUNT>
0

> <PUBCHEM_BOND_DEF_STEREO_COUNT>
0

> <PUBCHEM_BOND_UDEF_STEREO_COUNT>
0

> <PUBCHEM_ISOTOPIC_ATOM_COUNT>
0

> <PUBCHEM_COMPONENT_COUNT>
1

> <PUBCHEM_CACTVS_TAUTO_COUNT>
13

> <PUBCHEM_CONFORMER_ID>
030ACB7700000001

> <PUBCHEM_MMFF94_ENERGY>
102.8437

> <PUBCHEM_FEATURE_SELFOVERLAP>
60.9

> <PUBCHEM_SHAPE_FINGERPRINT>
10462674 296 17700111486307091599
10554248 39 17458352906075634510
11103572 155 18266178340096506166
11146346 142 17973740348886327580
11315621 246 18411697686362508533
11524674 6 16415473844775022797
117089 54 18119253015971820139
12013929 27 17894631495419073583
12082328 90 18334575741556047318
12522641 68 17247499392991491469
12633257 1 16056321764976162569
12717326 25 14549024273190809172
1361 4 18338798910137325146
13690498 29 18342736312531019004
13782708 43 18273207608559331832
14279260 333 18337103480076018683
14856354 85 18341331188695665103
15183329 4 18411409618679557142
15351334 14 17242446123243070238
15352257 5 17274826822765194862
15461852 350 18410582769298607372
15467298 65 18116421557948684226
1577012 14 18261397720269868036
16989713 51 18201995543094431845
17686467 74 18411974793911672616
19311894 1 18055617662989558215
21795232 338 18060421348118553065
25269216 80 18340505429914454110
397830 11 16987696027071460224
437795 160 18339067234714745922
445580 160 17917993875530382957
45377200 153 17989495109123643078
484989 97 18341052999162902088
54039377 194 18335146436131900275
54583773 228 18335145345442523380
58260988 114 18260558853317204531
9896288 288 18201444619640601121
999808 66 18201722864295093263

> <PUBCHEM_SHAPE_MULTIPOLES>
657.19
27.5
3.49
1.84
43.77
0.36
-1.5
-15.33
-0.63
-6.9
0.96
-0.77
-0.86
-1.97

> <PUBCHEM_SHAPE_SELFOVERLAP>
1399.638

> <PUBCHEM_SHAPE_VOLUME>
365

> <PUBCHEM_COORDINATE_TYPE>
2
5
10

$$$$
54576299
  -OEChem-11282412143D

 58 62  0     0  0  0  0  0  0999 V2000
    0.2113   -1.9747   -2.5316 F   0  0  0  0  0  0  0  0  0  0  0  0
    2.6097   -2.6831    2.3338 F   0  0  0  0  0  0  0  0  0  0  0  0
   -5.5995    4.9826   -0.7531 F   0  0  0  0  0  0  0  0  0  0  0  0
   -2.0818   -2.7947    1.9184 O   0  0  0  0  0  0  0  0  0  0  0  0
   -4.6117   -1.3967   -1.5300 O   0  0  0  0  0  0  0  0  0  0  0  0
    2.5817    1.9541    1.4100 O   0  0  0  0  0  0  0  0  0  0  0  0
    4.1556   -2.2487    0.0977 O   0  0  0  0  0  0  0  0  0  0  0  0
   -1.3946   -2.4079   -0.2955 N   0  0  0  0  0  0  0  0  0  0  0  0
   -4.1259   -0.2058    0.4427 N   0  0  0  0  0  0  0  0  0  0  0  0
    4.4678    2.5271    0.1236 N   0  0  0  0  0  0  0  0  0  0  0  0
    6.0823    1.2738   -1.0659 N   0  0  0  0  0  0  0  0  0  0  0  0
   -3.7126   -2.5895    0.2716 C   0  0  0  0  0  0  0  0  0  0  0  0
   -4.2777   -3.8820   -0.2405 C   0  0  0  0  0  0  0  0  0  0  0  0
   -4.7040   -3.3548    1.0982 C   0  0  0  0  0  0  0  0  0  0  0  0
   -2.3037   -2.6099    0.7296 C   0  0  0  0  0  0  0  0  0  0  0  0
   -4.2023   -1.3334   -0.3788 C   0  0  0  0  0  0  0  0  0  0  0  0
    3.0938    4.2249    1.1683 C   0  0  0  0  0  0  0  0  0  0  0  0
    1.7522    4.8008    0.8220 C   0  0  0  0  0  0  0  0  0  0  0  0
    2.9560    5.1559   -0.0005 C   0  0  0  0  0  0  0  0  0  0  0  0
    3.3474    2.7710    0.9173 C   0  0  0  0  0  0  0  0  0  0  0  0
    0.0170   -2.3695   -0.1971 C   0  0  0  0  0  0  0  0  0  0  0  0
   -4.4984    1.1046    0.1408 C   0  0  0  0  0  0  0  0  0  0  0  0
    0.7920   -2.1499   -1.3360 C   0  0  0  0  0  0  0  0  0  0  0  0
    0.6328   -2.5485    1.0415 C   0  0  0  0  0  0  0  0  0  0  0  0
   -4.3478    2.1102    1.0956 C   0  0  0  0  0  0  0  0  0  0  0  0
   -5.0212    1.4092   -1.1161 C   0  0  0  0  0  0  0  0  0  0  0  0
    4.9739    1.2898   -0.2920 C   0  0  0  0  0  0  0  0  0  0  0  0
    2.0236   -2.5081    1.1414 C   0  0  0  0  0  0  0  0  0  0  0  0
    2.1826   -2.1094   -1.2361 C   0  0  0  0  0  0  0  0  0  0  0  0
    2.7984   -2.2884    0.0025 C   0  0  0  0  0  0  0  0  0  0  0  0
   -4.7201    3.4201    0.7939 C   0  0  0  0  0  0  0  0  0  0  0  0
   -5.3936    2.7191   -1.4179 C   0  0  0  0  0  0  0  0  0  0  0  0
    4.2994    0.1519    0.1205 C   0  0  0  0  0  0  0  0  0  0  0  0
   -5.2430    3.7245   -0.4629 C   0  0  0  0  0  0  0  0  0  0  0  0
    4.7942   -1.0819   -0.2876 C   0  0  0  0  0  0  0  0  0  0  0  0
    5.9323   -1.1392   -1.0845 C   0  0  0  0  0  0  0  0  0  0  0  0
    6.5338    0.0565   -1.4430 C   0  0  0  0  0  0  0  0  0  0  0  0
   -5.0171   -3.8757   -1.0325 H   0  0  0  0  0  0  0  0  0  0  0  0
   -3.6409   -4.7596   -0.2533 H   0  0  0  0  0  0  0  0  0  0  0  0
   -4.3762   -3.9045    1.9724 H   0  0  0  0  0  0  0  0  0  0  0  0
   -5.7141   -2.9702    1.1861 H   0  0  0  0  0  0  0  0  0  0  0  0
    3.5694    4.6157    2.0622 H   0  0  0  0  0  0  0  0  0  0  0  0
    1.3459    5.5628    1.4759 H   0  0  0  0  0  0  0  0  0  0  0  0
    1.0078    4.1569    0.3696 H   0  0  0  0  0  0  0  0  0  0  0  0
    3.0064    4.7560   -1.0059 H   0  0  0  0  0  0  0  0  0  0  0  0
    3.3600    6.1558    0.1019 H   0  0  0  0  0  0  0  0  0  0  0  0
   -1.7635   -2.2728   -1.2345 H   0  0  0  0  0  0  0  0  0  0  0  0
   -3.7574   -0.3477    1.3808 H   0  0  0  0  0  0  0  0  0  0  0  0
    5.0018    3.3293   -0.2015 H   0  0  0  0  0  0  0  0  0  0  0  0
    0.1010   -2.7232    1.9661 H   0  0  0  0  0  0  0  0  0  0  0  0
   -3.9414    1.8874    2.0790 H   0  0  0  0  0  0  0  0  0  0  0  0
   -5.1672    0.6856   -1.9059 H   0  0  0  0  0  0  0  0  0  0  0  0
    2.7719   -1.9464   -2.1346 H   0  0  0  0  0  0  0  0  0  0  0  0
   -4.6027    4.2033    1.5370 H   0  0  0  0  0  0  0  0  0  0  0  0
   -5.8006    2.9579   -2.3961 H   0  0  0  0  0  0  0  0  0  0  0  0
    3.4327    0.1474    0.7587 H   0  0  0  0  0  0  0  0  0  0  0  0
    6.3395   -2.0873   -1.4176 H   0  0  0  0  0  0  0  0  0  0  0  0
    7.4238    0.0662   -2.0636 H   0  0  0  0  0  0  0  0  0  0  0  0
  1 23  1  0  0  0  0
  2 28  1  0  0  0  0
  3 34  1  0  0  0  0
  4 15  2  0  0  0  0
  5 16  2  0  0  0  0
  6 20  2  0  0  0  0
  7 30  1  0  0  0  0
  7 35  1  0  0  0  0
  8 15  1  0  0  0  0
  8 21  1  0  0  0  0
  8 47  1  0  0  0  0
  9 16  1  0  0  0  0
  9 22  1  0  0  0  0
  9 48  1  0  0  0  0
 10 20  1  0  0  0  0
 10 27  1  0  0  0  0
 10 49  1  0  0  0  0
 11 27  2  0  0  0  0
 11 37  1  0  0  0  0
 12 13  1  0  0  0  0
 12 14  1  0  0  0  0
 12 15  1  0  0  0  0
 12 16  1  0  0  0  0
 13 14  1  0  0  0  0
 13 38  1  0  0  0  0
 13 39  1  0  0  0  0
 14 40  1  0  0  0  0
 14 41  1  0  0  0  0
 17 18  1  0  0  0  0
 17 19  1  0  0  0  0
 17 20  1  0  0  0  0
 17 42  1  0  0  0  0
 18 19  1  0  0  0  0
 18 43  1  0  0  0  0
 18 44  1  0  0  0  0
 19 45  1  0  0  0  0
 19 46  1  0  0  0  0
 21 23  1  0  0  0  0
 21 24  2  0  0  0  0
 22 25  2  0  0  0  0
 22 26  1  0  0  0  0
 23 29  2  0  0  0  0
 24 28  1  0  0  0  0
 24 50  1  0  0  0  0
 25 31  1  0  0  0  0
 25 51  1  0  0  0  0
 26 32  2  0  0  0  0
 26 52  1  0  0  0  0
 27 33  1  0  0  0  0
 28 30  2  0  0  0  0
 29 30  1  0  0  0  0
 29 53  1  0  0  0  0
 31 34  2  0  0  0  0
 31 54  1  0  0  0  0
 32 34  1  0  0  0  0
 32 55  1  0  0  0  0
 33 35  2  0  0  0  0
 33 56  1  0  0  0  0
 35 36  1  0  0  0  0
 36 37  2  0  0  0  0
 36 57  1  0  0  0  0
 37 58  1  0  0  0  0
M  END
> <PUBCHEM_COMPOUND_CID>
54576299

> <PUBCHEM_CONFORMER_RMSD>
1.2

> <PUBCHEM_CONFORMER_DIVERSEORDER>
1
139
84
180
79
80
120
131
51
138
70
99
150
94
60
40
132
67
124
116
152
10
93
76
137
170
5
141
135
149
77
102
144
157
72
147
42
25
133
82
108
156
146
115
14
89
63
167
121
162
172
130
96
98
74
73
100
58
15
71
114
179
36
106
127
142
19
155
169
97
65
86
69
158
12
129
23
175
109
75
41
153
47
103
154
163
62
122
165
26
85
177
46
61
24
49
27
111
161
176
143
91
13
140
87
160
145
18
171
54
164
48
134
78
118
38
174
126
168
105
166
68
43
151
50
159
59
104
33
113
112
81
22
90
31
44
64
107
173
123
178
35
110
55
95
52
101
16
148
9
117
11
66
4
92
6
128
125
83
17
57
119
39
8
34
32
88
37
29
20
3
136
56
53
2
21
28
45
30
7

> <PUBCHEM_MMFF94_PARTIAL_CHARGES>
57
1 -0.19
10 -0.55
11 -0.62
13 -0.2
14 -0.2
15 0.63
16 0.63
17 -0.1
18 -0.2
19 -0.2
2 -0.19
20 0.63
21 0.12
22 0.12
23 0.19
24 -0.15
25 -0.15
26 -0.15
27 0.43
28 0.19
29 -0.15
3 -0.19
30 0.08
31 -0.15
32 -0.15
33 -0.15
34 0.19
35 0.08
36 -0.15
37 0.16
38 0.1
39 0.1
4 -0.57
40 0.1
41 0.1
42 0.1
43 0.1
44 0.1
45 0.1
46 0.1
47 0.37
48 0.37
49 0.37
5 -0.57
50 0.15
51 0.15
52 0.15
53 0.15
54 0.15
55 0.15
56 0.15
57 0.15
58 0.15
6 -0.57
7 -0.17
8 -0.55
9 -0.55

> <PUBCHEM_EFFECTIVE_ROTOR_COUNT>
12.2

> <PUBCHEM_PHARMACOPHORE_FEATURES>
10
1 10 donor
1 4 acceptor
1 5 acceptor
1 6 acceptor
1 7 acceptor
1 8 donor
1 9 donor
6 11 27 33 35 36 37 rings
6 21 23 24 28 29 30 rings
6 22 25 26 31 32 34 rings

> <PUBCHEM_HEAVY_ATOM_COUNT>
37

> <PUBCHEM_ATOM_DEF_STEREO_COUNT>
0

> <PUBCHEM_ATOM_UDEF_STEREO_COUNT>
0

> <PUBCHEM_BOND_DEF_STEREO_COUNT>
0

> <PUBCHEM_BOND_UDEF_STEREO_COUNT>
0

> <PUBCHEM_ISOTOPIC_ATOM_COUNT>
0

> <PUBCHEM_COMPONENT_COUNT>
1

> <PUBCHEM_CACTVS_TAUTO_COUNT>
20

> <PUBCHEM_CONFORMER_ID>
0340C4AB00000001

> <PUBCHEM_MMFF94_ENERGY>
113.3036

> <PUBCHEM_FEATURE_SELFOVERLAP>
50.748

> <PUBCHEM_SHAPE_FINGERPRINT>
10439779 11 18336539434873703401
10842077 115 17909510112773468697
10864689 126 18122346766017441396
11101153 10 18198904910693958783
11828042 226 18120648038788380173
12128747 34 18265618865119202708
12925494 130 18411415107816689705
14251764 38 18340207491700291001
14415360 78 18117827821247707653
14705955 166 17460891832330713010
15001296 14 18265890448728526937
15082195 135 18059281068476866487
15320291 9 18339354270899703057
15320467 1 18339644412872152833
15336146 87 18338797935021058391
15538507 32 18411975863737713421
21223535 225 18271519897250250300
22122407 14 18410572894240827267
23516275 100 17761484095176888653
23569914 2 17627467728033104328
2838139 119 18412826902095003222
325973 47 18341612658966146193
4144715 1 18335150790596508474
508180 173 18340780307931959816
57676310 151 17406820801342052973
6086070 43 18411694387991298082
6673363 416 17903655303812917678

> <PUBCHEM_SHAPE_MULTIPOLES>
696.22
16.33
7.72
1.6
0.3
8.71
-0.06
8.5
-4.34
-4.55
1.54
0.07
-0.56
2.38

> <PUBCHEM_SHAPE_SELFOVERLAP>
1522.603

> <PUBCHEM_SHAPE_VOLUME>
377.4

> <PUBCHEM_COORDINATE_TYPE>
2
5
10

$$$$
59757974
  -OEChem-11282412143D

 63 67  0     0  0  0  0  0  0999 V2000
    0.9378   -4.0473   -0.3085 O   0  0  0  0  0  0  0  0  0  0  0  0
    3.5911    1.8286   -0.9704 N   0  0  0  0  0  0  0  0  0  0  0  0
   -4.2316    0.4183    0.1169 N   0  0  0  0  0  0  0  0  0  0  0  0
    2.3775    1.2514   -0.9525 N   0  0  0  0  0  0  0  0  0  0  0  0
   -6.9681    0.5510    0.9249 N   0  0  0  0  0  0  0  0  0  0  0  0
    0.2285    2.0752   -0.1395 N   0  0  0  0  0  0  0  0  0  0  0  0
   -2.5355   -0.9386   -0.8216 N   0  0  0  0  0  0  0  0  0  0  0  0
   -0.2785   -0.1044   -0.9535 N   0  0  0  0  0  0  0  0  0  0  0  0
   -0.8205   -2.2467   -1.7438 N   0  0  0  0  0  0  0  0  0  0  0  0
    1.8007   -4.3104    0.7484 N   0  0  0  0  0  0  0  0  0  0  0  0
    4.8222    4.0010   -0.3145 C   0  0  0  0  0  0  0  0  0  0  0  0
    5.1742    4.5457    1.0387 C   0  0  0  0  0  0  0  0  0  0  0  0
    6.0369    3.4934    0.4059 C   0  0  0  0  0  0  0  0  0  0  0  0
    3.6113    3.0857   -0.4416 C   0  0  0  0  0  0  0  0  0  0  0  0
    2.3212    3.3494   -0.0509 C   0  0  0  0  0  0  0  0  0  0  0  0
    1.6059    2.1851   -0.3896 C   0  0  0  0  0  0  0  0  0  0  0  0
   -5.2660   -0.2621   -0.6724 C   0  0  0  0  0  0  0  0  0  0  0  0
   -4.5714    0.6768    1.5195 C   0  0  0  0  0  0  0  0  0  0  0  0
   -6.6187    0.4316   -0.4961 C   0  0  0  0  0  0  0  0  0  0  0  0
   -5.9473    1.3393    1.6256 C   0  0  0  0  0  0  0  0  0  0  0  0
   -2.8944    0.2296   -0.2498 C   0  0  0  0  0  0  0  0  0  0  0  0
   -0.7066    1.0382   -0.3776 C   0  0  0  0  0  0  0  0  0  0  0  0
   -8.2863    1.1655    1.0790 C   0  0  0  0  0  0  0  0  0  0  0  0
   -2.0149    1.2635   -0.0011 C   0  0  0  0  0  0  0  0  0  0  0  0
   -1.2315   -1.0367   -1.1435 C   0  0  0  0  0  0  0  0  0  0  0  0
    0.5301   -2.4960   -2.1398 C   0  0  0  0  0  0  0  0  0  0  0  0
    3.8013   -3.3010    1.6908 C   0  0  0  0  0  0  0  0  0  0  0  0
    1.3538   -2.9310   -0.9595 C   0  0  0  0  0  0  0  0  0  0  0  0
    2.7146   -3.3369    0.6989 C   0  0  0  0  0  0  0  0  0  0  0  0
    2.4818   -2.4396   -0.3575 C   0  0  0  0  0  0  0  0  0  0  0  0
    5.2071   -3.4470    1.0589 C   0  0  0  0  0  0  0  0  0  0  0  0
    3.7753   -2.0314    2.5762 C   0  0  0  0  0  0  0  0  0  0  0  0
    4.9935    4.6516   -1.1653 H   0  0  0  0  0  0  0  0  0  0  0  0
    4.5823    4.2558    1.8985 H   0  0  0  0  0  0  0  0  0  0  0  0
    5.5661    5.5545    1.0896 H   0  0  0  0  0  0  0  0  0  0  0  0
    7.0077    3.7958    0.0322 H   0  0  0  0  0  0  0  0  0  0  0  0
    6.0176    2.5016    0.8414 H   0  0  0  0  0  0  0  0  0  0  0  0
    1.9552    4.2553    0.4117 H   0  0  0  0  0  0  0  0  0  0  0  0
    4.3653    1.3044   -1.3588 H   0  0  0  0  0  0  0  0  0  0  0  0
   -5.3358   -1.3122   -0.3608 H   0  0  0  0  0  0  0  0  0  0  0  0
   -5.0095   -0.2464   -1.7392 H   0  0  0  0  0  0  0  0  0  0  0  0
   -3.8378    1.3332    2.0012 H   0  0  0  0  0  0  0  0  0  0  0  0
   -4.5658   -0.2719    2.0716 H   0  0  0  0  0  0  0  0  0  0  0  0
   -6.5886    1.4211   -0.9722 H   0  0  0  0  0  0  0  0  0  0  0  0
   -7.3783   -0.1601   -1.0213 H   0  0  0  0  0  0  0  0  0  0  0  0
   -6.2046    1.4255    2.6883 H   0  0  0  0  0  0  0  0  0  0  0  0
   -5.8960    2.3581    1.2181 H   0  0  0  0  0  0  0  0  0  0  0  0
   -0.2114    2.8834    0.2986 H   0  0  0  0  0  0  0  0  0  0  0  0
   -9.0534    0.5576    0.5866 H   0  0  0  0  0  0  0  0  0  0  0  0
   -8.3252    2.1770    0.6585 H   0  0  0  0  0  0  0  0  0  0  0  0
   -8.5626    1.2215    2.1378 H   0  0  0  0  0  0  0  0  0  0  0  0
   -2.3297    2.1995    0.4461 H   0  0  0  0  0  0  0  0  0  0  0  0
   -1.5289   -2.9595   -1.8734 H   0  0  0  0  0  0  0  0  0  0  0  0
    0.9825   -1.6282   -2.6340 H   0  0  0  0  0  0  0  0  0  0  0  0
    0.5401   -3.3086   -2.8759 H   0  0  0  0  0  0  0  0  0  0  0  0
    3.6809   -4.1545    2.3733 H   0  0  0  0  0  0  0  0  0  0  0  0
    3.0509   -1.5682   -0.6437 H   0  0  0  0  0  0  0  0  0  0  0  0
    5.4371   -2.6023    0.4001 H   0  0  0  0  0  0  0  0  0  0  0  0
    5.2691   -4.3642    0.4629 H   0  0  0  0  0  0  0  0  0  0  0  0
    5.9778   -3.4936    1.8354 H   0  0  0  0  0  0  0  0  0  0  0  0
    3.9437   -1.1271    1.9807 H   0  0  0  0  0  0  0  0  0  0  0  0
    4.5508   -2.0811    3.3478 H   0  0  0  0  0  0  0  0  0  0  0  0
    2.8054   -1.9284    3.0750 H   0  0  0  0  0  0  0  0  0  0  0  0
  1 10  1  0  0  0  0
  1 28  1  0  0  0  0
  2  4  1  0  0  0  0
  2 14  1  0  0  0  0
  2 39  1  0  0  0  0
  3 17  1  0  0  0  0
  3 18  1  0  0  0  0
  3 21  1  0  0  0  0
  4 16  2  0  0  0  0
  5 19  1  0  0  0  0
  5 20  1  0  0  0  0
  5 23  1  0  0  0  0
  6 16  1  0  0  0  0
  6 22  1  0  0  0  0
  6 48  1  0  0  0  0
  7 21  2  0  0  0  0
  7 25  1  0  0  0  0
  8 22  1  0  0  0  0
  8 25  2  0  0  0  0
  9 25  1  0  0  0  0
  9 26  1  0  0  0  0
  9 53  1  0  0  0  0
 10 29  2  0  0  0  0
 11 12  1  0  0  0  0
 11 13  1  0  0  0  0
 11 14  1  0  0  0  0
 11 33  1  0  0  0  0
 12 13  1  0  0  0  0
 12 34  1  0  0  0  0
 12 35  1  0  0  0  0
 13 36  1  0  0  0  0
 13 37  1  0  0  0  0
 14 15  2  0  0  0  0
 15 16  1  0  0  0  0
 15 38  1  0  0  0  0
 17 19  1  0  0  0  0
 17 40  1  0  0  0  0
 17 41  1  0  0  0  0
 18 20  1  0  0  0  0
 18 42  1  0  0  0  0
 18 43  1  0  0  0  0
 19 44  1  0  0  0  0
 19 45  1  0  0  0  0
 20 46  1  0  0  0  0
 20 47  1  0  0  0  0
 21 24  1  0  0  0  0
 22 24  2  0  0  0  0
 23 49  1  0  0  0  0
 23 50  1  0  0  0  0
 23 51  1  0  0  0  0
 24 52  1  0  0  0  0
 26 28  1  0  0  0  0
 26 54  1  0  0  0  0
 26 55  1  0  0  0  0
 27 29  1  0  0  0  0
 27 31  1  0  0  0  0
 27 32  1  0  0  0  0
 27 56  1  0  0  0  0
 28 30  2  0  0  0  0
 29 30  1  0  0  0  0
 30 57  1  0  0  0  0
 31 58  1  0  0  0  0
 31 59  1  0  0  0  0
 31 60  1  0  0  0  0
 32 61  1  0  0  0  0
 32 62  1  0  0  0  0
 32 63  1  0  0  0  0
M  END
> <PUBCHEM_COMPOUND_CID>
59757974

> <PUBCHEM_CONFORMER_RMSD>
1.2

> <PUBCHEM_CONFORMER_DIVERSEORDER>
1
80
89
27
38
67
99
105
94
70
76
37
44
10
8
75
56
95
21
90
86
71
24
78
26
102
31
87
101
97
59
103
85
20
65
82
83
98
40
72
15
91
39
53
106
93
77
30
54
34
18
52
64
23
100
28
79
107
63
96
49
9
35
61
45
62
73
16
19
42
41
22
68
69
36
104
47
33
58
84
51
92
6
5
81
50
17
60
14
48
88
32
57
13
11
46
74
4
29
66
12
55
25
2
43
7
3

> <PUBCHEM_MMFF94_PARTIAL_CHARGES>
41
1 -0.02
10 -0.41
11 -0.01
12 -0.2
13 -0.2
14 -0.24
15 -0.15
16 0.37
17 0.37
18 0.37
19 0.27
2 0.3
20 0.27
21 0.41
22 0.41
23 0.27
24 -0.15
25 0.72
26 0.55
27 0.18
28 -0.04
29 0.11
3 -0.84
30 -0.15
33 0.1
34 0.1
35 0.1
36 0.1
37 0.1
38 0.15
39 0.27
4 -0.71
48 0.4
5 -0.81
52 0.15
53 0.4
57 0.15
6 -0.58
7 -0.62
8 -0.62
9 -0.87

> <PUBCHEM_EFFECTIVE_ROTOR_COUNT>
9.8

> <PUBCHEM_PHARMACOPHORE_FEATURES>
12
1 10 acceptor
1 2 donor
1 5 cation
1 6 donor
1 9 donor
3 27 31 32 hydrophobe
3 4 6 16 cation
4 7 8 9 25 cation
5 1 10 28 29 30 rings
5 2 4 14 15 16 rings
6 3 5 17 18 19 20 rings
6 7 8 21 22 24 25 rings

> <PUBCHEM_HEAVY_ATOM_COUNT>
32

> <PUBCHEM_ATOM_DEF_STEREO_COUNT>
0

> <PUBCHEM_ATOM_UDEF_STEREO_COUNT>
0

> <PUBCHEM_BOND_DEF_STEREO_COUNT>
0

> <PUBCHEM_BOND_UDEF_STEREO_COUNT>
0

> <PUBCHEM_ISOTOPIC_ATOM_COUNT>
0

> <PUBCHEM_COMPONENT_COUNT>
1

> <PUBCHEM_CACTVS_TAUTO_COUNT>
57

> <PUBCHEM_CONFORMER_ID>
038FD59600000001

> <PUBCHEM_MMFF94_ENERGY>
76.7674

> <PUBCHEM_FEATURE_SELFOVERLAP>
60.896

> <PUBCHEM_SHAPE_FINGERPRINT>
10305334 12 18198339761732580388
11297750 10 17823691958719443172
12440605 4 18267588103293476651
12597179 24 18115315599721617507
12717326 69 17750809916156090659
12857493 111 18048301259610879357
13008946 113 18261966132446679780
13008946 282 18272923900379742273
13540713 5 18200861976982683039
14150023 24 18264205975614380668
14415361 192 17970078751488851956
14565420 104 18339929315121716384
15475509 35 17386016014182297011
15927050 60 18267584804905864038
16120349 306 18268141140466860664
20554085 129 17418372527667735664
20642791 268 17914620454077297079
21049683 118 17916008252473957832
21421861 104 18410858720055890333
244849 19 17386549277115721855
249999 5 18410296908253069025
25147074 1 18130777972157035799
3187 122 17832691388583832962
3411729 13 18412270549168695741
4149490 64 18333741217717530019
5385378 56 18410578405095396109
9896288 288 17904485451955440978

> <PUBCHEM_SHAPE_MULTIPOLES>
607.85
16.26
6.63
1.7
29.02
0.94
0.43
-12.21
8.28
-17.13
1.09
-0.23
1.23
-2.88

> <PUBCHEM_SHAPE_SELFOVERLAP>
1289.408

> <PUBCHEM_SHAPE_VOLUME>
339.1

> <PUBCHEM_COORDINATE_TYPE>
2
5
10

$$$$
71611869
  -OEChem-11282412143D

 59 63  0     1  0  0  0  0  0999 V2000
   -2.1438   -0.3958    1.1446 S   0  0  0  0  0  0  0  0  0  0  0  0
    0.7042   -2.3124   -0.3502 O   0  0  0  0  0  0  0  0  0  0  0  0
    6.6785   -3.0454   -0.4356 O   0  0  0  0  0  0  0  0  0  0  0  0
   -4.8566   -1.5762    2.3188 O   0  0  0  0  0  0  0  0  0  0  0  0
    4.1635   -0.4965   -0.3364 N   0  0  2  0  0  0  0  0  0  0  0  0
    1.7862    1.9518   -0.3083 N   0  0  0  0  0  0  0  0  0  0  0  0
    5.9957   -1.7409    1.3138 N   0  0  0  0  0  0  0  0  0  0  0  0
    2.6377    2.9805   -0.0791 N   0  0  0  0  0  0  0  0  0  0  0  0
    0.7333    4.1702    0.7964 N   0  0  0  0  0  0  0  0  0  0  0  0
   -1.4248    3.3356    0.9197 N   0  0  0  0  0  0  0  0  0  0  0  0
    2.1000    0.7360   -0.8573 C   0  0  0  0  0  0  0  0  0  0  0  0
    3.5014    0.3951   -1.2892 C   0  0  0  0  0  0  0  0  0  0  0  0
    0.9442   -0.0135   -0.9108 C   0  0  0  0  0  0  0  0  0  0  0  0
   -0.1031    0.7780   -0.3753 C   0  0  0  0  0  0  0  0  0  0  0  0
    4.6299    0.2557    0.8309 C   0  0  0  0  0  0  0  0  0  0  0  0
    0.4483    1.9872   -0.0116 C   0  0  0  0  0  0  0  0  0  0  0  0
    5.2912   -1.1767   -0.9818 C   0  0  0  0  0  0  0  0  0  0  0  0
    5.1100   -0.7411    1.8701 C   0  0  0  0  0  0  0  0  0  0  0  0
   -1.5120    0.3763   -0.2376 C   0  0  0  0  0  0  0  0  0  0  0  0
    0.8289   -1.3921   -1.4330 C   0  0  0  0  0  0  0  0  0  0  0  0
    6.0224   -2.0892   -0.0177 C   0  0  0  0  0  0  0  0  0  0  0  0
   -0.1011    3.1838    0.5802 C   0  0  0  0  0  0  0  0  0  0  0  0
   -2.4722    0.5763   -1.2008 C   0  0  0  0  0  0  0  0  0  0  0  0
   -3.7649    0.0897   -0.8104 C   0  0  0  0  0  0  0  0  0  0  0  0
   -3.7282   -0.4748    0.4685 C   0  0  0  0  0  0  0  0  0  0  0  0
    2.0655    4.0219    0.4562 C   0  0  0  0  0  0  0  0  0  0  0  0
   -5.0008    0.1017   -1.5015 C   0  0  0  0  0  0  0  0  0  0  0  0
   -4.8813   -1.0206    1.0661 C   0  0  0  0  0  0  0  0  0  0  0  0
   -6.1463   -0.4388   -0.9114 C   0  0  0  0  0  0  0  0  0  0  0  0
   -6.0848   -0.9938    0.3588 C   0  0  0  0  0  0  0  0  0  0  0  0
    0.5913   -3.6476   -0.8177 C   0  0  0  0  0  0  0  0  0  0  0  0
   -7.4402   -0.4166   -1.6540 C   0  0  0  0  0  0  0  0  0  0  0  0
   -4.5722   -2.9679    2.3956 C   0  0  0  0  0  0  0  0  0  0  0  0
    3.4129   -0.0989   -2.2667 H   0  0  0  0  0  0  0  0  0  0  0  0
    4.0972    1.2979   -1.4773 H   0  0  0  0  0  0  0  0  0  0  0  0
    3.8307    0.8457    1.2906 H   0  0  0  0  0  0  0  0  0  0  0  0
    5.4379    0.9479    0.5600 H   0  0  0  0  0  0  0  0  0  0  0  0
    6.0190   -0.4635   -1.3884 H   0  0  0  0  0  0  0  0  0  0  0  0
    4.9223   -1.8049   -1.8015 H   0  0  0  0  0  0  0  0  0  0  0  0
    5.6442   -0.2346    2.6801 H   0  0  0  0  0  0  0  0  0  0  0  0
    4.2632   -1.2805    2.3098 H   0  0  0  0  0  0  0  0  0  0  0  0
   -0.0525   -1.4721   -2.0812 H   0  0  0  0  0  0  0  0  0  0  0  0
    1.7027   -1.6630   -2.0360 H   0  0  0  0  0  0  0  0  0  0  0  0
    6.5191   -2.3201    1.9631 H   0  0  0  0  0  0  0  0  0  0  0  0
   -2.2721    1.0519   -2.1540 H   0  0  0  0  0  0  0  0  0  0  0  0
    2.7046    4.8947    0.6688 H   0  0  0  0  0  0  0  0  0  0  0  0
   -5.0509    0.5345   -2.4981 H   0  0  0  0  0  0  0  0  0  0  0  0
   -2.1153    2.6062    0.7915 H   0  0  0  0  0  0  0  0  0  0  0  0
   -1.7533    4.2025    1.3320 H   0  0  0  0  0  0  0  0  0  0  0  0
   -6.9788   -1.4147    0.8142 H   0  0  0  0  0  0  0  0  0  0  0  0
    0.4948   -4.3083    0.0480 H   0  0  0  0  0  0  0  0  0  0  0  0
    1.4861   -3.9361   -1.3777 H   0  0  0  0  0  0  0  0  0  0  0  0
   -0.2992   -3.7619   -1.4435 H   0  0  0  0  0  0  0  0  0  0  0  0
   -7.5344   -1.3157   -2.2709 H   0  0  0  0  0  0  0  0  0  0  0  0
   -8.2916   -0.3729   -0.9661 H   0  0  0  0  0  0  0  0  0  0  0  0
   -7.5080    0.4636   -2.3024 H   0  0  0  0  0  0  0  0  0  0  0  0
   -3.6026   -3.1969    1.9425 H   0  0  0  0  0  0  0  0  0  0  0  0
   -5.3600   -3.5466    1.9029 H   0  0  0  0  0  0  0  0  0  0  0  0
   -4.5390   -3.2538    3.4506 H   0  0  0  0  0  0  0  0  0  0  0  0
  1 19  1  0  0  0  0
  1 25  1  0  0  0  0
  2 20  1  0  0  0  0
  2 31  1  0  0  0  0
  3 21  2  0  0  0  0
  4 28  1  0  0  0  0
  4 33  1  0  0  0  0
  5 12  1  0  0  0  0
  5 15  1  0  0  0  0
  5 17  1  0  0  0  0
  6  8  1  0  0  0  0
  6 11  1  0  0  0  0
  6 16  1  0  0  0  0
  7 18  1  0  0  0  0
  7 21  1  0  0  0  0
  7 44  1  0  0  0  0
  8 26  2  0  0  0  0
  9 22  2  0  0  0  0
  9 26  1  0  0  0  0
 10 22  1  0  0  0  0
 10 48  1  0  0  0  0
 10 49  1  0  0  0  0
 11 12  1  0  0  0  0
 11 13  2  0  0  0  0
 12 34  1  0  0  0  0
 12 35  1  0  0  0  0
 13 14  1  0  0  0  0
 13 20  1  0  0  0  0
 14 16  2  0  0  0  0
 14 19  1  0  0  0  0
 15 18  1  0  0  0  0
 15 36  1  0  0  0  0
 15 37  1  0  0  0  0
 16 22  1  0  0  0  0
 17 21  1  0  0  0  0
 17 38  1  0  0  0  0
 17 39  1  0  0  0  0
 18 40  1  0  0  0  0
 18 41  1  0  0  0  0
 19 23  2  0  0  0  0
 20 42  1  0  0  0  0
 20 43  1  0  0  0  0
 23 24  1  0  0  0  0
 23 45  1  0  0  0  0
 24 25  1  0  0  0  0
 24 27  2  0  0  0  0
 25 28  2  0  0  0  0
 26 46  1  0  0  0  0
 27 29  1  0  0  0  0
 27 47  1  0  0  0  0
 28 30  1  0  0  0  0
 29 30  2  0  0  0  0
 29 32  1  0  0  0  0
 30 50  1  0  0  0  0
 31 51  1  0  0  0  0
 31 52  1  0  0  0  0
 31 53  1  0  0  0  0
 32 54  1  0  0  0  0
 32 55  1  0  0  0  0
 32 56  1  0  0  0  0
 33 57  1  0  0  0  0
 33 58  1  0  0  0  0
 33 59  1  0  0  0  0
M  END
> <PUBCHEM_COMPOUND_CID>
71611869

> <PUBCHEM_CONFORMER_RMSD>
1

> <PUBCHEM_CONFORMER_DIVERSEORDER>
1
64
49
42
67
31
57
37
54
30
72
58
6
70
76
79
23
52
24
34
65
74
69
51
62
46
39
55
18
17
75
71
35
33
61
10
41
56
28
36
20
77
21
66
73
9
32
44
53
78
59
14
13
68
11
15
12
25
3
4
45
50
27
16
38
8
22
63
7
19
26
5
29
60
40
2
43
48
47

> <PUBCHEM_MMFF94_PARTIAL_CHARGES>
38
1 -0.08
10 -0.85
11 -0.33
12 0.45
13 -0.18
15 0.27
16 -0.24
17 0.33
18 0.3
19 0.04
2 -0.56
20 0.46
21 0.57
22 0.58
23 -0.15
25 0.04
26 0.6
27 -0.15
28 0.08
29 -0.14
3 -0.57
30 -0.15
31 0.28
32 0.14
33 0.28
4 -0.36
44 0.37
45 0.15
46 0.06
47 0.15
48 0.4
49 0.4
5 -0.81
50 0.15
6 0.51
7 -0.73
8 -0.65
9 -0.66

> <PUBCHEM_EFFECTIVE_ROTOR_COUNT>
7

> <PUBCHEM_PHARMACOPHORE_FEATURES>
13
1 10 donor
1 2 acceptor
1 3 acceptor
1 4 acceptor
1 5 cation
1 7 donor
3 8 9 26 cation
3 9 10 22 cation
5 1 19 23 24 25 rings
5 6 11 13 14 16 rings
6 24 25 27 28 29 30 rings
6 5 7 15 17 18 21 rings
6 6 8 9 16 22 26 rings

> <PUBCHEM_HEAVY_ATOM_COUNT>
33

> <PUBCHEM_ATOM_DEF_STEREO_COUNT>
0

> <PUBCHEM_ATOM_UDEF_STEREO_COUNT>
0

> <PUBCHEM_BOND_DEF_STEREO_COUNT>
0

> <PUBCHEM_BOND_UDEF_STEREO_COUNT>
0

> <PUBCHEM_ISOTOPIC_ATOM_COUNT>
0

> <PUBCHEM_COMPONENT_COUNT>
1

> <PUBCHEM_CACTVS_TAUTO_COUNT>
9

> <PUBCHEM_CONFORMER_ID>
0444B5DD00000001

> <PUBCHEM_MMFF94_ENERGY>
90.4911

> <PUBCHEM_FEATURE_SELFOVERLAP>
66.267

> <PUBCHEM_SHAPE_FINGERPRINT>
10411042 1 18342737373867839796
10673678 19 11095883795679505026
1100329 8 18341887554094663806
11456790 92 18410023117985786105
117089 54 18050290259387902762
11796584 16 17603581949888483659
12166972 35 18060415828542180632
12236239 1 17060344037346986053
12422481 6 17560531602963903104
131258 43 18266480749945792830
13636023 51 17895474859723911949
13782708 43 18114747161301586963
13911987 19 18338251451766242781
14068700 675 18131910447047112073
14955137 171 18411419514247257634
15183329 4 16443343139611769559
15927050 60 17909266124571081980
18222031 100 18202288004666245524
20028762 73 18059853969632337606
21065201 7 17241321521043916217
22223350 30 17915449721567357563
23559900 14 17894910789137349941
23569943 247 17272874012520998382
3004659 81 17821730520633767270
3178227 256 18411986883785187223
32027 91 18335702784129757011
392239 28 16702301235030012314
4340502 62 14405183967427095012
5104073 3 18269570467197504217
6004065 56 18271800263682494551
6697151 62 18339345444714853717
8863177 126 18115314517374320371

> <PUBCHEM_SHAPE_MULTIPOLES>
635.48
15.99
4.2
1.73
4.14
2.85
-0.61
-12.91
-0.18
-4.06
-1.35
1.58
-0.93
1.68

> <PUBCHEM_SHAPE_SELFOVERLAP>
1376.861

> <PUBCHEM_SHAPE_VOLUME>
353.4

> <PUBCHEM_COORDINATE_TYPE>
2
5
10

$$$$
71622431
  -OEChem-11282412143D

 51 55  0     1  0  0  0  0  0999 V2000
    4.8808   -1.1177   -2.1909 S   0  0  0  0  0  0  0  0  0  0  0  0
    3.3929    1.1505    1.6061 O   0  0  0  0  0  0  0  0  0  0  0  0
    7.5384   -1.7825    0.2776 O   0  0  0  0  0  0  0  0  0  0  0  0
    1.6087    1.7113    0.2742 N   0  0  0  0  0  0  0  0  0  0  0  0
   -3.5675    1.1931   -0.0585 N   0  0  0  0  0  0  0  0  0  0  0  0
    3.3279    0.3829   -0.5963 N   0  0  0  0  0  0  0  0  0  0  0  0
   -5.2808    0.0848   -1.2857 N   0  0  0  0  0  0  0  0  0  0  0  0
   -4.5875   -3.2553    0.8794 N   0  0  0  0  0  0  0  0  0  0  0  0
   -5.8912   -2.2360   -0.8744 N   0  0  0  0  0  0  0  0  0  0  0  0
    5.4562   -0.5768    0.2168 N   0  0  0  0  0  0  0  0  0  0  0  0
    6.3204   -1.7645   -1.6341 N   0  0  0  0  0  0  0  0  0  0  0  0
   -0.3170    2.6864   -0.7226 C   0  0  2  0  0  0  0  0  0  0  0  0
   -0.4713    2.7024    0.7982 C   0  0  1  0  0  0  0  0  0  0  0  0
   -1.6737    2.2208   -1.2224 C   0  0  0  0  0  0  0  0  0  0  0  0
   -1.4378    1.5517    1.1194 C   0  0  0  0  0  0  0  0  0  0  0  0
   -2.1308    1.1816   -0.1987 C   0  0  0  0  0  0  0  0  0  0  0  0
    0.8366    1.7119   -0.9684 C   0  0  0  0  0  0  0  0  0  0  0  0
    0.9455    2.4946    1.3085 C   0  0  0  0  0  0  0  0  0  0  0  0
    2.8359    1.0780    0.5092 C   0  0  0  0  0  0  0  0  0  0  0  0
   -4.2158    2.4348    0.3596 C   0  0  0  0  0  0  0  0  0  0  0  0
   -4.3323    0.0507   -0.3211 C   0  0  0  0  0  0  0  0  0  0  0  0
   -4.1283   -1.1244    0.4007 C   0  0  0  0  0  0  0  0  0  0  0  0
   -4.9348   -2.2065    0.0699 C   0  0  0  0  0  0  0  0  0  0  0  0
   -3.2710   -1.5522    1.4467 C   0  0  0  0  0  0  0  0  0  0  0  0
    4.5295   -0.3615   -0.6909 C   0  0  0  0  0  0  0  0  0  0  0  0
   -5.9918   -1.0453   -1.4995 C   0  0  0  0  0  0  0  0  0  0  0  0
   -3.5764   -2.8683    1.7212 C   0  0  0  0  0  0  0  0  0  0  0  0
    6.4321   -1.3669   -0.3667 C   0  0  0  0  0  0  0  0  0  0  0  0
    7.7032   -1.3778    1.6431 C   0  0  0  0  0  0  0  0  0  0  0  0
   -0.0567    3.6785   -1.1091 H   0  0  0  0  0  0  0  0  0  0  0  0
   -0.8962    3.6461    1.1579 H   0  0  0  0  0  0  0  0  0  0  0  0
   -2.3465    3.0827   -1.2888 H   0  0  0  0  0  0  0  0  0  0  0  0
   -1.6165    1.7911   -2.2287 H   0  0  0  0  0  0  0  0  0  0  0  0
   -0.8873    0.6789    1.4921 H   0  0  0  0  0  0  0  0  0  0  0  0
   -2.1219    1.8364    1.9263 H   0  0  0  0  0  0  0  0  0  0  0  0
   -1.7712    0.1955   -0.5217 H   0  0  0  0  0  0  0  0  0  0  0  0
    0.5091    0.6864   -1.1688 H   0  0  0  0  0  0  0  0  0  0  0  0
    1.4673    2.0434   -1.7995 H   0  0  0  0  0  0  0  0  0  0  0  0
    1.4807    3.4482    1.3809 H   0  0  0  0  0  0  0  0  0  0  0  0
    0.9986    1.9916    2.2789 H   0  0  0  0  0  0  0  0  0  0  0  0
   -3.5106    3.2150    0.6623 H   0  0  0  0  0  0  0  0  0  0  0  0
   -4.8747    2.2445    1.2142 H   0  0  0  0  0  0  0  0  0  0  0  0
   -4.8234    2.8358   -0.4589 H   0  0  0  0  0  0  0  0  0  0  0  0
    2.7874    0.3789   -1.4550 H   0  0  0  0  0  0  0  0  0  0  0  0
   -2.5169   -0.9766    1.9622 H   0  0  0  0  0  0  0  0  0  0  0  0
   -6.7438   -0.9850   -2.2788 H   0  0  0  0  0  0  0  0  0  0  0  0
   -5.0118   -4.1723    0.8596 H   0  0  0  0  0  0  0  0  0  0  0  0
   -3.1662   -3.5619    2.4415 H   0  0  0  0  0  0  0  0  0  0  0  0
    8.6437   -1.7976    2.0102 H   0  0  0  0  0  0  0  0  0  0  0  0
    6.8831   -1.7644    2.2565 H   0  0  0  0  0  0  0  0  0  0  0  0
    7.7547   -0.2866    1.7133 H   0  0  0  0  0  0  0  0  0  0  0  0
  1 11  1  0  0  0  0
  1 25  1  0  0  0  0
  2 19  2  0  0  0  0
  3 28  1  0  0  0  0
  3 29  1  0  0  0  0
  4 17  1  0  0  0  0
  4 18  1  0  0  0  0
  4 19  1  0  0  0  0
  5 16  1  0  0  0  0
  5 20  1  0  0  0  0
  5 21  1  0  0  0  0
  6 19  1  0  0  0  0
  6 25  1  0  0  0  0
  6 44  1  0  0  0  0
  7 21  2  0  0  0  0
  7 26  1  0  0  0  0
  8 23  1  0  0  0  0
  8 27  1  0  0  0  0
  8 47  1  0  0  0  0
  9 23  1  0  0  0  0
  9 26  2  0  0  0  0
 10 25  2  0  0  0  0
 10 28  1  0  0  0  0
 11 28  2  0  0  0  0
 12 13  1  0  0  0  0
 12 14  1  0  0  0  0
 12 17  1  0  0  0  0
 12 30  1  0  0  0  0
 13 15  1  0  0  0  0
 13 18  1  0  0  0  0
 13 31  1  0  0  0  0
 14 16  1  0  0  0  0
 14 32  1  0  0  0  0
 14 33  1  0  0  0  0
 15 16  1  0  0  0  0
 15 34  1  0  0  0  0
 15 35  1  0  0  0  0
 16 36  1  0  0  0  0
 17 37  1  0  0  0  0
 17 38  1  0  0  0  0
 18 39  1  0  0  0  0
 18 40  1  0  0  0  0
 20 41  1  0  0  0  0
 20 42  1  0  0  0  0
 20 43  1  0  0  0  0
 21 22  1  0  0  0  0
 22 23  2  0  0  0  0
 22 24  1  0  0  0  0
 24 27  2  0  0  0  0
 24 45  1  0  0  0  0
 26 46  1  0  0  0  0
 27 48  1  0  0  0  0
 29 49  1  0  0  0  0
 29 50  1  0  0  0  0
 29 51  1  0  0  0  0
M  END
> <PUBCHEM_COMPOUND_CID>
71622431

> <PUBCHEM_CONFORMER_RMSD>
0.8

> <PUBCHEM_CONFORMER_DIVERSEORDER>
1
97
122
147
54
44
143
145
114
60
64
101
57
140
112
157
171
95
137
144
50
47
84
55
16
125
53
86
161
45
76
49
153
6
68
65
136
129
58
37
123
3
128
73
146
150
31
52
24
85
38
41
109
151
173
62
121
91
172
17
81
2
71
90
107
117
29
40
30
34
158
113
42
33
130
26
77
59
98
111
56
19
159
23
138
9
46
8
170
116
126
63
96
32
25
39
103
4
93
115
48
35
14
7
148
167
70
102
78
72
43
36
120
94
152
118
82
92
5
155
163
169
27
127
20
108
135
66
133
51
110
87
162
141
67
74
134
164
99
105
79
139
166
160
61
75
22
100
89
154
13
124
156
28
18
69
12
104
88
168
119
21
165
11
10
106
132
149
83
15
131
80
142

> <PUBCHEM_MMFF94_PARTIAL_CHARGES>
29
1 0.18
10 -0.57
11 -0.51
16 0.37
17 0.3
18 0.3
19 0.69
2 -0.57
20 0.37
21 0.41
23 0.11
24 -0.15
25 0.44
26 0.47
27 -0.3
28 0.58
29 0.28
3 -0.34
4 -0.66
44 0.37
45 0.15
46 0.15
47 0.27
48 0.15
5 -0.84
6 -0.49
7 -0.62
8 0.03
9 -0.57

> <PUBCHEM_EFFECTIVE_ROTOR_COUNT>
7.2

> <PUBCHEM_PHARMACOPHORE_FEATURES>
12
1 2 acceptor
1 6 donor
1 8 cation
1 8 donor
3 10 11 28 cation
3 5 7 21 cation
3 7 9 26 cation
5 1 10 11 25 28 rings
5 12 13 14 15 16 rings
5 4 12 13 17 18 rings
5 8 22 23 24 27 rings
6 7 9 21 22 23 26 rings

> <PUBCHEM_HEAVY_ATOM_COUNT>
29

> <PUBCHEM_ATOM_DEF_STEREO_COUNT>
2

> <PUBCHEM_ATOM_UDEF_STEREO_COUNT>
0

> <PUBCHEM_BOND_DEF_STEREO_COUNT>
0

> <PUBCHEM_BOND_UDEF_STEREO_COUNT>
0

> <PUBCHEM_ISOTOPIC_ATOM_COUNT>
0

> <PUBCHEM_COMPONENT_COUNT>
1

> <PUBCHEM_CACTVS_TAUTO_COUNT>
12

> <PUBCHEM_CONFORMER_ID>
0444DF1F00000001

> <PUBCHEM_MMFF94_ENERGY>
87.0043

> <PUBCHEM_FEATURE_SELFOVERLAP>
61.609

> <PUBCHEM_SHAPE_FINGERPRINT>
10 15 11167943575955733911
10369192 42 11963395120315663401
10692045 39 11023565549067621340
10917259 69 18270396072325028813
11135609 201 9223232932060927733
11273773 46 18260546754205160803
11393246 34 18342742879746725542
12596602 18 15123510285398968718
12643181 29 18334853883537493856
12760667 363 18413673504478147289
1361 87 18188780572928062067
13761468 95 15938076783609899741
13782708 43 18272089379648552862
14211702 104 18413111671432481384
14848178 5 18340208595617694829
14866123 147 18411146814553280521
14931854 50 17968082141230913675
14950920 106 15195275473741861783
14951699 99 11312056561087685752
15183329 4 17603585214760298506
15510800 12 18341048605131893363
15530120 55 16444771542882902454
16992828 155 15811131324095626963
17627616 140 17970062249386574595
18393751 57 11023820695957831165
21033648 144 8142091970178755297
21307412 95 18334288795524173063
21401589 2 9799695883113182933
21623969 137 17632294554398787038
21682296 61 18131355215265661279
2260408 40 15338852941024588692
229767 8 17901959856857442035
23379529 103 18117566351742688851
23428019 142 17821736043439971474
23559900 14 18190737725559204005
23569943 247 18269838770032464939
25025965 108 17844507943043342694
25122255 55 18341617044216594647
2747138 104 17703506602910593320
2838139 119 7925634354428824048
3089732 80 18341901792022091222
32027 91 18339641269292890355
3383291 50 18342173384638185023
4280585 95 18187362121154696404
437815 12 18343584053127846008
484985 159 18261970613056704187
5104073 3 17775009002546111129
5718773 13 18200869677695319247
58902169 19 16805890589649493126
6009941 240 17845090667036250072
6636798 310 16128085789046121079
7918774 8 18130803243369740572

> <PUBCHEM_SHAPE_MULTIPOLES>
549.07
19
3.73
1.72
26.84
0.11
0.15
18.95
2.08
-3.54
-0.89
0.99
0.53
1.25

> <PUBCHEM_SHAPE_SELFOVERLAP>
1186.904

> <PUBCHEM_SHAPE_VOLUME>
306.8

> <PUBCHEM_COORDINATE_TYPE>
2
5
10

$$$$
156425951
  -OEChem-11282412143D

 52 56  0     1  0  0  0  0  0999 V2000
    2.1080    3.1503    1.8118 F   0  0  0  0  0  0  0  0  0  0  0  0
    2.9548    1.4484    2.8731 F   0  0  0  0  0  0  0  0  0  0  0  0
    4.1525   -3.3120   -1.9560 F   0  0  0  0  0  0  0  0  0  0  0  0
    2.1663    3.2792   -0.8253 O   0  0  0  0  0  0  0  0  0  0  0  0
   -0.5249   -2.4326    0.8387 O   0  0  0  0  0  0  0  0  0  0  0  0
   -4.7971    0.1259    0.3305 O   0  0  0  0  0  0  0  0  0  0  0  0
    1.7449    0.7387    0.4687 N   0  0  0  0  0  0  0  0  0  0  0  0
   -2.7507   -0.9470    0.0871 N   0  0  0  0  0  0  0  0  0  0  0  0
   -1.4447    2.8558   -1.0755 N   0  0  0  0  0  0  0  0  0  0  0  0
   -0.5590    0.8960   -0.0141 N   0  0  0  0  0  0  0  0  0  0  0  0
   -2.6355    3.3922   -1.4476 N   0  0  0  0  0  0  0  0  0  0  0  0
    3.0419    1.4260    0.5346 C   0  0  1  0  0  0  0  0  0  0  0  0
    1.6189   -0.5487    1.1720 C   0  0  0  0  0  0  0  0  0  0  0  0
   -2.9619   -2.2424    0.7528 C   0  0  0  0  0  0  0  0  0  0  0  0
    3.1862    2.2833   -0.7258 C   0  0  0  0  0  0  0  0  0  0  0  0
    0.6463    1.4082   -0.0863 C   0  0  0  0  0  0  0  0  0  0  0  0
    0.8970    2.7518   -0.7478 C   0  0  0  0  0  0  0  0  0  0  0  0
    3.1233    2.2635    1.8126 C   0  0  0  0  0  0  0  0  0  0  0  0
    1.6791   -1.7506    0.2451 C   0  0  0  0  0  0  0  0  0  0  0  0
   -1.7211   -3.1132    0.4191 C   0  0  0  0  0  0  0  0  0  0  0  0
   -1.6128    1.6065   -0.5002 C   0  0  0  0  0  0  0  0  0  0  0  0
   -0.1778    3.4107   -1.1984 C   0  0  0  0  0  0  0  0  0  0  0  0
    0.6244   -2.6838    0.1286 C   0  0  0  0  0  0  0  0  0  0  0  0
   -4.2185   -2.9478    0.2253 C   0  0  0  0  0  0  0  0  0  0  0  0
   -3.0719   -2.0312    2.2692 C   0  0  0  0  0  0  0  0  0  0  0  0
   -2.9683    1.3292   -0.5137 C   0  0  0  0  0  0  0  0  0  0  0  0
   -3.6146    0.1310    0.0066 C   0  0  0  0  0  0  0  0  0  0  0  0
    2.8656   -1.9865   -0.4752 C   0  0  0  0  0  0  0  0  0  0  0  0
   -3.5398    2.4785   -1.0905 C   0  0  0  0  0  0  0  0  0  0  0  0
    0.7974   -3.8302   -0.6632 C   0  0  0  0  0  0  0  0  0  0  0  0
    3.0115   -3.1123   -1.2840 C   0  0  0  0  0  0  0  0  0  0  0  0
    1.9804   -4.0370   -1.3719 C   0  0  0  0  0  0  0  0  0  0  0  0
    3.8540    0.6922    0.5554 H   0  0  0  0  0  0  0  0  0  0  0  0
    0.6994   -0.5494    1.7682 H   0  0  0  0  0  0  0  0  0  0  0  0
    2.4256   -0.6675    1.9069 H   0  0  0  0  0  0  0  0  0  0  0  0
    4.1498    2.8045   -0.7151 H   0  0  0  0  0  0  0  0  0  0  0  0
    3.1658    1.6618   -1.6309 H   0  0  0  0  0  0  0  0  0  0  0  0
    4.0727    2.7971    1.9103 H   0  0  0  0  0  0  0  0  0  0  0  0
   -1.7732   -4.0819    0.9300 H   0  0  0  0  0  0  0  0  0  0  0  0
   -1.7160   -3.2764   -0.6669 H   0  0  0  0  0  0  0  0  0  0  0  0
   -1.8106   -0.8167   -0.2735 H   0  0  0  0  0  0  0  0  0  0  0  0
   -0.1116    4.3875   -1.6631 H   0  0  0  0  0  0  0  0  0  0  0  0
   -4.1908   -3.0399   -0.8665 H   0  0  0  0  0  0  0  0  0  0  0  0
   -4.3102   -3.9551    0.6469 H   0  0  0  0  0  0  0  0  0  0  0  0
   -5.1315   -2.4018    0.4837 H   0  0  0  0  0  0  0  0  0  0  0  0
   -3.1464   -2.9885    2.7966 H   0  0  0  0  0  0  0  0  0  0  0  0
   -2.2023   -1.4939    2.6643 H   0  0  0  0  0  0  0  0  0  0  0  0
   -3.9581   -1.4398    2.5256 H   0  0  0  0  0  0  0  0  0  0  0  0
    3.7044   -1.3011   -0.4004 H   0  0  0  0  0  0  0  0  0  0  0  0
   -4.5841    2.6872   -1.2752 H   0  0  0  0  0  0  0  0  0  0  0  0
    0.0286   -4.5940   -0.7384 H   0  0  0  0  0  0  0  0  0  0  0  0
    2.0976   -4.9256   -1.9851 H   0  0  0  0  0  0  0  0  0  0  0  0
  1 18  1  0  0  0  0
  2 18  1  0  0  0  0
  3 31  1  0  0  0  0
  4 15  1  0  0  0  0
  4 17  1  0  0  0  0
  5 20  1  0  0  0  0
  5 23  1  0  0  0  0
  6 27  2  0  0  0  0
  7 12  1  0  0  0  0
  7 13  1  0  0  0  0
  7 16  1  0  0  0  0
  8 14  1  0  0  0  0
  8 27  1  0  0  0  0
  8 41  1  0  0  0  0
  9 11  1  0  0  0  0
  9 21  1  0  0  0  0
  9 22  1  0  0  0  0
 10 16  2  0  0  0  0
 10 21  1  0  0  0  0
 11 29  2  0  0  0  0
 12 15  1  0  0  0  0
 12 18  1  0  0  0  0
 12 33  1  0  0  0  0
 13 19  1  0  0  0  0
 13 34  1  0  0  0  0
 13 35  1  0  0  0  0
 14 20  1  0  0  0  0
 14 24  1  0  0  0  0
 14 25  1  0  0  0  0
 15 36  1  0  0  0  0
 15 37  1  0  0  0  0
 16 17  1  0  0  0  0
 17 22  2  0  0  0  0
 18 38  1  0  0  0  0
 19 23  2  0  0  0  0
 19 28  1  0  0  0  0
 20 39  1  0  0  0  0
 20 40  1  0  0  0  0
 21 26  2  0  0  0  0
 22 42  1  0  0  0  0
 23 30  1  0  0  0  0
 24 43  1  0  0  0  0
 24 44  1  0  0  0  0
 24 45  1  0  0  0  0
 25 46  1  0  0  0  0
 25 47  1  0  0  0  0
 25 48  1  0  0  0  0
 26 27  1  0  0  0  0
 26 29  1  0  0  0  0
 28 31  2  0  0  0  0
 28 49  1  0  0  0  0
 29 50  1  0  0  0  0
 30 32  2  0  0  0  0
 30 51  1  0  0  0  0
 31 32  1  0  0  0  0
 32 52  1  0  0  0  0
M  END
> <PUBCHEM_COMPOUND_CID>
156425951

> <PUBCHEM_CONFORMER_RMSD>
0.8

> <PUBCHEM_CONFORMER_DIVERSEORDER>
1
6
3
7
5
4
2

> <PUBCHEM_MMFF94_PARTIAL_CHARGES>
36
1 -0.34
10 -0.58
11 -0.71
12 0.37
13 0.51
14 0.3
15 0.28
16 0.49
17 0.09
18 0.68
19 -0.14
2 -0.34
20 0.28
21 -0.03
22 -0.18
23 0.08
26 -0.09
27 0.72
28 -0.15
29 0.14
3 -0.19
30 -0.15
31 0.19
32 -0.15
4 -0.36
41 0.37
42 0.15
49 0.15
5 -0.36
50 0.15
51 0.15
52 0.15
6 -0.57
7 -0.79
8 -0.73
9 0.6

> <PUBCHEM_EFFECTIVE_ROTOR_COUNT>
2.6

> <PUBCHEM_PHARMACOPHORE_FEATURES>
11
1 11 acceptor
1 4 acceptor
1 5 acceptor
1 6 acceptor
1 8 donor
3 14 24 25 hydrophobe
3 7 10 16 cation
5 9 11 21 26 29 rings
6 19 23 28 30 31 32 rings
6 4 7 12 15 16 17 rings
6 9 10 16 17 21 22 rings

> <PUBCHEM_HEAVY_ATOM_COUNT>
32

> <PUBCHEM_ATOM_DEF_STEREO_COUNT>
0

> <PUBCHEM_ATOM_UDEF_STEREO_COUNT>
1

> <PUBCHEM_BOND_DEF_STEREO_COUNT>
0

> <PUBCHEM_BOND_UDEF_STEREO_COUNT>
0

> <PUBCHEM_ISOTOPIC_ATOM_COUNT>
0

> <PUBCHEM_COMPONENT_COUNT>
1

> <PUBCHEM_CACTVS_TAUTO_COUNT>
-1

> <PUBCHEM_CONFORMER_ID>
0952DEDF00000001

> <PUBCHEM_MMFF94_ENERGY>
93.7115

> <PUBCHEM_FEATURE_SELFOVERLAP>
55.985

> <PUBCHEM_SHAPE_FINGERPRINT>
10010297 198 17681807921030285544
10032420 55 17542771024115250908
10616163 171 18189052169595743793
10653451 467 18198605680680850674
10675989 125 16315547702111515060
11513181 2 18269279117447505782
12124843 1 13077194321552197671
12156800 1 11609629714688833489
12422481 6 18267563849986819530
12553582 1 17545033806260849773
13122387 1 17687739437725498717
13140716 1 18337094701177877793
13149001 5 18194681458291359758
13402501 40 18337668599040060818
1361 2 18123469642863900175
13642711 20 16986856072574510355
14114206 34 17184733702809374134
14114207 22 15438974340742227369
14117953 113 18121774200001620071
14223421 5 18409726274819419997
14363568 33 18193585357057559707
14400156 260 13881614792883578576
14400156 96 17690610555387841243
14725015 67 18188482455359118459
14931854 50 17400078569805354103
14932702 115 18122366609187913812
15219462 58 17775568645495813065
15297060 5 17622754297345749769
15420108 30 17042324415683089905
15840311 113 18201732730816258907
15950262 2 14568201757496857647
15968369 26 18194099851733461804
161222 619 17698403739080867730
17974551 9 17487618520276335625
18681886 176 17903639927450786628
19591789 44 18192436491881522740
1979834 28 18051142676882018059
20028762 73 17622731238141500471
20642791 239 17686074794528093572
20764821 26 18262516979228687551
20775438 99 17979315800066082695
21049683 271 17978831009643092382
21141583 151 17763743191648756391
22113638 7 17400914697143551431
22182313 1 18409164385522421915
22907989 373 17256014036853907446
23536364 44 17693958292725642094
23559900 14 18264762164788040549
238918 7 18268972306896058714
25019877 29 16551444108099427174
255183 313 17695893811415973688
35225 105 16830586895718615208
352729 6 18262221339682521373
4280585 95 18119527635869008918
4403749 210 17979323655240104288
463206 1 18048617927553842260
469060 322 16235682673593967362
46939830 39 16241613550935868819
484985 159 13033548434446737350
50150288 127 16050697436266069746
5171179 24 18343016683838265102
5895379 119 16468119904421306392
6287921 2 18269284610969048635
6823239 73 18335985255274928096
70251023 43 18057304116647590847
9709674 26 18408879616748867885
9925002 15 16755208961269144915

> <PUBCHEM_SHAPE_MULTIPOLES>
594.21
7.13
6.47
1.72
3.96
1.87
0.86
0.83
0.67
-2.01
-2.7
-1.14
-0.19
3.81

> <PUBCHEM_SHAPE_SELFOVERLAP>
1311.166

> <PUBCHEM_SHAPE_VOLUME>
315.3

> <PUBCHEM_COORDINATE_TYPE>
2
5
10

$$$$
46866319
  -OEChem-11282412143D

 49 52  0     1  0  0  0  0  0999 V2000
   -4.7661    2.4838   -2.7601 F   0  0  0  0  0  0  0  0  0  0  0  0
   -0.1665    1.9178    1.4961 N   0  0  0  0  0  0  0  0  0  0  0  0
   -0.0241   -0.2686    0.6493 N   0  0  0  0  0  0  0  0  0  0  0  0
    6.2041    0.0183   -0.4846 N   0  0  0  0  0  0  0  0  0  0  0  0
    0.1679   -2.4776   -0.2221 N   0  0  0  0  0  0  0  0  0  0  0  0
    6.0825    1.3392   -0.7008 N   0  0  0  0  0  0  0  0  0  0  0  0
   -2.0909   -2.2035    0.4749 N   0  0  0  0  0  0  0  0  0  0  0  0
   -2.6108   -4.8271   -0.3693 N   0  0  0  0  0  0  0  0  0  0  0  0
   -1.5809    1.7815    1.8170 C   0  0  2  0  0  0  0  0  0  0  0  0
   -2.4259    1.9679    0.6024 C   0  0  0  0  0  0  0  0  0  0  0  0
    0.5799    0.9089    0.9254 C   0  0  0  0  0  0  0  0  0  0  0  0
   -1.9185    2.7510    2.9598 C   0  0  0  0  0  0  0  0  0  0  0  0
    2.6823    0.1641    0.0995 C   0  0  0  0  0  0  0  0  0  0  0  0
    1.9163    1.1733    0.6725 C   0  0  0  0  0  0  0  0  0  0  0  0
    4.0725    0.3864   -0.1819 C   0  0  0  0  0  0  0  0  0  0  0  0
    2.0965   -1.0613   -0.1989 C   0  0  0  0  0  0  0  0  0  0  0  0
    0.7521   -1.2256    0.0929 C   0  0  0  0  0  0  0  0  0  0  0  0
   -3.6222    1.2626    0.4705 C   0  0  0  0  0  0  0  0  0  0  0  0
   -2.0204    2.8473   -0.4015 C   0  0  0  0  0  0  0  0  0  0  0  0
    5.0292   -0.5992   -0.1705 C   0  0  0  0  0  0  0  0  0  0  0  0
    4.7782    1.5582   -0.5144 C   0  0  0  0  0  0  0  0  0  0  0  0
   -4.4127    1.4366   -0.6654 C   0  0  0  0  0  0  0  0  0  0  0  0
   -2.8109    3.0213   -1.5375 C   0  0  0  0  0  0  0  0  0  0  0  0
   -4.0070    2.3159   -1.6694 C   0  0  0  0  0  0  0  0  0  0  0  0
    7.4987   -0.6099   -0.5954 C   0  0  0  0  0  0  0  0  0  0  0  0
   -1.1334   -2.9813   -0.0680 C   0  0  0  0  0  0  0  0  0  0  0  0
   -1.3887   -4.2700   -0.4826 C   0  0  0  0  0  0  0  0  0  0  0  0
   -3.3129   -2.7606    0.5882 C   0  0  0  0  0  0  0  0  0  0  0  0
   -3.5683   -4.0492    0.1736 C   0  0  0  0  0  0  0  0  0  0  0  0
   -1.7492    0.7730    2.2198 H   0  0  0  0  0  0  0  0  0  0  0  0
    0.2325    2.8508    1.5112 H   0  0  0  0  0  0  0  0  0  0  0  0
   -1.7642    3.7932    2.6569 H   0  0  0  0  0  0  0  0  0  0  0  0
   -2.9644    2.6447    3.2673 H   0  0  0  0  0  0  0  0  0  0  0  0
   -1.2840    2.5606    3.8324 H   0  0  0  0  0  0  0  0  0  0  0  0
    2.3480    2.1385    0.9227 H   0  0  0  0  0  0  0  0  0  0  0  0
    2.6592   -1.8681   -0.6595 H   0  0  0  0  0  0  0  0  0  0  0  0
   -3.9515    0.5773    1.2469 H   0  0  0  0  0  0  0  0  0  0  0  0
   -1.1054    3.4275   -0.3234 H   0  0  0  0  0  0  0  0  0  0  0  0
    4.9871   -1.6609    0.0353 H   0  0  0  0  0  0  0  0  0  0  0  0
    4.4035    2.5653   -0.6330 H   0  0  0  0  0  0  0  0  0  0  0  0
   -5.3442    0.8879   -0.7682 H   0  0  0  0  0  0  0  0  0  0  0  0
   -2.4980    3.7090   -2.3176 H   0  0  0  0  0  0  0  0  0  0  0  0
    0.8380   -3.1664   -0.5530 H   0  0  0  0  0  0  0  0  0  0  0  0
    7.4053   -1.6789   -0.3891 H   0  0  0  0  0  0  0  0  0  0  0  0
    8.1691   -0.1463    0.1326 H   0  0  0  0  0  0  0  0  0  0  0  0
    7.8693   -0.4568   -1.6120 H   0  0  0  0  0  0  0  0  0  0  0  0
   -0.6289   -4.9069   -0.9212 H   0  0  0  0  0  0  0  0  0  0  0  0
   -4.0829   -2.1368    1.0248 H   0  0  0  0  0  0  0  0  0  0  0  0
   -4.5505   -4.4960    0.2652 H   0  0  0  0  0  0  0  0  0  0  0  0
  1 24  1  0  0  0  0
  2  9  1  0  0  0  0
  2 11  1  0  0  0  0
  2 31  1  0  0  0  0
  3 11  1  0  0  0  0
  3 17  2  0  0  0  0
  4  6  1  0  0  0  0
  4 20  1  0  0  0  0
  4 25  1  0  0  0  0
  5 17  1  0  0  0  0
  5 26  1  0  0  0  0
  5 43  1  0  0  0  0
  6 21  2  0  0  0  0
  7 26  2  0  0  0  0
  7 28  1  0  0  0  0
  8 27  2  0  0  0  0
  8 29  1  0  0  0  0
  9 10  1  0  0  0  0
  9 12  1  0  0  0  0
  9 30  1  0  0  0  0
 10 18  2  0  0  0  0
 10 19  1  0  0  0  0
 11 14  2  0  0  0  0
 12 32  1  0  0  0  0
 12 33  1  0  0  0  0
 12 34  1  0  0  0  0
 13 14  1  0  0  0  0
 13 15  1  0  0  0  0
 13 16  2  0  0  0  0
 14 35  1  0  0  0  0
 15 20  2  0  0  0  0
 15 21  1  0  0  0  0
 16 17  1  0  0  0  0
 16 36  1  0  0  0  0
 18 22  1  0  0  0  0
 18 37  1  0  0  0  0
 19 23  2  0  0  0  0
 19 38  1  0  0  0  0
 20 39  1  0  0  0  0
 21 40  1  0  0  0  0
 22 24  2  0  0  0  0
 22 41  1  0  0  0  0
 23 24  1  0  0  0  0
 23 42  1  0  0  0  0
 25 44  1  0  0  0  0
 25 45  1  0  0  0  0
 25 46  1  0  0  0  0
 26 27  1  0  0  0  0
 27 47  1  0  0  0  0
 28 29  2  0  0  0  0
 28 48  1  0  0  0  0
 29 49  1  0  0  0  0
M  END
> <PUBCHEM_COMPOUND_CID>
46866319

> <PUBCHEM_CONFORMER_RMSD>
1

> <PUBCHEM_CONFORMER_DIVERSEORDER>
1
177
100
134
138
135
137
15
40
74
154
42
150
185
69
51
162
164
126
66
73
31
80
50
148
68
86
9
46
25
111
133
175
145
88
124
172
151
182
39
129
165
96
112
159
70
93
41
85
109
183
76
11
125
62
75
107
58
149
20
36
113
49
128
63
152
146
156
141
78
144
35
131
122
2
37
130
147
178
106
136
94
67
121
32
52
92
163
87
171
110
170
59
64
115
90
71
84
108
28
10
142
101
81
99
22
54
44
55
23
38
105
24
104
127
29
30
3
95
83
184
18
120
5
34
61
53
57
60
48
65
89
140
97
155
33
173
181
160
12
139
26
153
132
180
14
4
7
56
79
119
174
114
176
17
169
118
91
161
21
43
157
123
158
82
103
6
179
47
77
98
116
45
27
167
72
102
19
168
8
166
13
16
117
143

> <PUBCHEM_MMFF94_PARTIAL_CHARGES>
41
1 -0.19
10 -0.14
11 0.41
13 0.05
14 -0.15
15 -0.05
16 -0.15
17 0.41
18 -0.15
19 -0.15
2 -0.87
20 -0.3
21 0.14
22 -0.15
23 -0.15
24 0.19
25 0.26
26 0.41
27 0.16
28 0.16
29 0.16
3 -0.62
31 0.4
35 0.15
36 0.15
37 0.15
38 0.15
39 0.15
4 0.31
40 0.15
41 0.15
42 0.15
43 0.4
47 0.15
48 0.15
49 0.15
5 -0.6
6 -0.71
7 -0.62
8 -0.62
9 0.51

> <PUBCHEM_EFFECTIVE_ROTOR_COUNT>
6

> <PUBCHEM_PHARMACOPHORE_FEATURES>
11
1 2 cation
1 2 donor
1 5 donor
1 6 acceptor
1 8 acceptor
3 3 5 17 cation
3 5 7 26 cation
5 4 6 15 20 21 rings
6 10 18 19 22 23 24 rings
6 3 11 13 14 16 17 rings
6 7 8 26 27 28 29 rings

> <PUBCHEM_HEAVY_ATOM_COUNT>
29

> <PUBCHEM_ATOM_DEF_STEREO_COUNT>
1

> <PUBCHEM_ATOM_UDEF_STEREO_COUNT>
0

> <PUBCHEM_BOND_DEF_STEREO_COUNT>
0

> <PUBCHEM_BOND_UDEF_STEREO_COUNT>
0

> <PUBCHEM_ISOTOPIC_ATOM_COUNT>
0

> <PUBCHEM_COMPONENT_COUNT>
1

> <PUBCHEM_CACTVS_TAUTO_COUNT>
13

> <PUBCHEM_CONFORMER_ID>
02CB1F8F00000001

> <PUBCHEM_MMFF94_ENERGY>
90.3844

> <PUBCHEM_FEATURE_SELFOVERLAP>
56.21

> <PUBCHEM_SHAPE_FINGERPRINT>
10119406 146 17843981247604614182
105312 117 18261957340774244476
10577160 183 17968087570496571370
10688039 33 18047474705643402843
11045515 52 18049443948016730619
11582403 64 17387124269888538705
11991303 11 18333737901000762486
12293681 25 17488206849528735734
12403259 226 17838614809841889667
12788726 201 18337952415222874186
13052359 8 18411414003709174026
13150687 139 18188769414460219174
13540713 4 18057874935128836840
13583140 156 17531825579667499672
13911987 19 18337951169307739789
14251757 5 18412260666095772995
14930077 153 17750807725068459852
14931854 50 18199447932109390533
15276724 80 18122631810254062012
15463212 79 18040710359716365531
15775530 1 17700958093048616904
17138139 8 17842523376283594493
17899979 129 17611735718115891397
19319366 153 17340147558235250657
19427546 20 18265060296480660166
19958102 18 18340492141127358422
21033648 144 18413672422722213636
21049683 271 17547581834363880898
21236236 1 18340773723209342450
21641784 216 17973743646518207692
23559900 14 18201999950390604664
23576562 1 18115039593014209548
238 59 17757823438967932343
255183 451 17548420761747437279
3103668 31 18263071275667552855
4046055 25 17975976780288369662
4058900 60 18122060901921848517
4409770 3 18412263952083513955
563151 97 17981609264693309136
57527358 35 15793953912248922033
59755656 520 18340495469099310425
6677587 24 16667914967049978485
6691757 9 18129941175273639210
7164475 11 18193282012634807740
7237137 82 18267033919462426700

> <PUBCHEM_SHAPE_MULTIPOLES>
554.67
12.36
5.58
1.66
25.6
7.16
-0.25
-3.19
5.5
-9.72
0.47
-2.42
-2.23
1.2

> <PUBCHEM_SHAPE_SELFOVERLAP>
1213.723

> <PUBCHEM_SHAPE_VOLUME>
301.9

> <PUBCHEM_COORDINATE_TYPE>
2
5
10

$$$$
44631938
  -OEChem-11282412143D

 46 48  0     0  0  0  0  0  0999 V2000
   -5.1198   -0.2081    0.1012 S   0  0  0  0  0  0  0  0  0  0  0  0
   -5.7136   -0.8838   -1.0440 O   0  0  0  0  0  0  0  0  0  0  0  0
   -4.9330   -0.9291    1.3530 O   0  0  0  0  0  0  0  0  0  0  0  0
    1.1431    0.0728    0.5009 N   0  0  0  0  0  0  0  0  0  0  0  0
   -6.0057    1.2163    0.4388 N   0  0  0  0  0  0  0  0  0  0  0  0
    2.7454   -1.6816    0.6309 N   0  0  0  0  0  0  0  0  0  0  0  0
    5.6346    0.9678   -0.3476 N   0  0  0  0  0  0  0  0  0  0  0  0
    5.1155   -1.3208    0.2064 N   0  0  0  0  0  0  0  0  0  0  0  0
   -2.7600   -0.5557   -1.1944 C   0  0  0  0  0  0  0  0  0  0  0  0
    0.0978   -0.4753   -0.3384 C   0  0  0  0  0  0  0  0  0  0  0  0
   -2.1477   -1.6409   -0.2971 C   0  0  0  0  0  0  0  0  0  0  0  0
   -1.6755    0.1278   -2.0397 C   0  0  0  0  0  0  0  0  0  0  0  0
   -0.9707   -1.1352    0.5361 C   0  0  0  0  0  0  0  0  0  0  0  0
   -0.4983    0.6345   -1.2078 C   0  0  0  0  0  0  0  0  0  0  0  0
   -3.5676    0.4604   -0.3819 C   0  0  0  0  0  0  0  0  0  0  0  0
    2.4624   -0.3785    0.4008 C   0  0  0  0  0  0  0  0  0  0  0  0
    0.7846    1.1086    1.4658 C   0  0  0  0  0  0  0  0  0  0  0  0
    3.4921    0.4996    0.0659 C   0  0  0  0  0  0  0  0  0  0  0  0
    4.7705   -0.0396   -0.0100 C   0  0  0  0  0  0  0  0  0  0  0  0
   -5.4354    2.2070    1.3694 C   0  0  0  0  0  0  0  0  0  0  0  0
    3.6069    1.8800   -0.2396 C   0  0  0  0  0  0  0  0  0  0  0  0
    4.0369   -2.0666    0.5209 C   0  0  0  0  0  0  0  0  0  0  0  0
    4.9374    2.1402   -0.4895 C   0  0  0  0  0  0  0  0  0  0  0  0
   -3.4268   -1.0562   -1.9075 H   0  0  0  0  0  0  0  0  0  0  0  0
    0.5120   -1.2417   -1.0086 H   0  0  0  0  0  0  0  0  0  0  0  0
   -2.8959   -2.0977    0.3567 H   0  0  0  0  0  0  0  0  0  0  0  0
   -1.7845   -2.4532   -0.9414 H   0  0  0  0  0  0  0  0  0  0  0  0
   -1.2956   -0.5946   -2.7742 H   0  0  0  0  0  0  0  0  0  0  0  0
   -2.1035    0.9555   -2.6176 H   0  0  0  0  0  0  0  0  0  0  0  0
   -0.5261   -1.9830    1.0734 H   0  0  0  0  0  0  0  0  0  0  0  0
   -1.3576   -0.4683    1.3117 H   0  0  0  0  0  0  0  0  0  0  0  0
   -0.8400    1.4834   -0.6046 H   0  0  0  0  0  0  0  0  0  0  0  0
    0.2733    1.0327   -1.8788 H   0  0  0  0  0  0  0  0  0  0  0  0
   -3.0419    0.8205    0.5055 H   0  0  0  0  0  0  0  0  0  0  0  0
   -3.7957    1.3204   -1.0223 H   0  0  0  0  0  0  0  0  0  0  0  0
    1.1524    0.8359    2.4614 H   0  0  0  0  0  0  0  0  0  0  0  0
    1.2205    2.0732    1.1940 H   0  0  0  0  0  0  0  0  0  0  0  0
   -0.2915    1.2775    1.5580 H   0  0  0  0  0  0  0  0  0  0  0  0
   -6.4992    1.6434   -0.3561 H   0  0  0  0  0  0  0  0  0  0  0  0
   -4.7219    2.8496    0.8479 H   0  0  0  0  0  0  0  0  0  0  0  0
   -6.2454    2.8336    1.7537 H   0  0  0  0  0  0  0  0  0  0  0  0
   -4.9516    1.7188    2.2190 H   0  0  0  0  0  0  0  0  0  0  0  0
    2.8171    2.6156   -0.2921 H   0  0  0  0  0  0  0  0  0  0  0  0
    4.2302   -3.1167    0.7115 H   0  0  0  0  0  0  0  0  0  0  0  0
    6.6318    0.8628   -0.4736 H   0  0  0  0  0  0  0  0  0  0  0  0
    5.4486    3.0535   -0.7596 H   0  0  0  0  0  0  0  0  0  0  0  0
  1  2  2  0  0  0  0
  1  3  2  0  0  0  0
  1  5  1  0  0  0  0
  1 15  1  0  0  0  0
  4 10  1  0  0  0  0
  4 16  1  0  0  0  0
  4 17  1  0  0  0  0
  5 20  1  0  0  0  0
  5 39  1  0  0  0  0
  6 16  2  0  0  0  0
  6 22  1  0  0  0  0
  7 19  1  0  0  0  0
  7 23  1  0  0  0  0
  7 45  1  0  0  0  0
  8 19  1  0  0  0  0
  8 22  2  0  0  0  0
  9 11  1  0  0  0  0
  9 12  1  0  0  0  0
  9 15  1  0  0  0  0
  9 24  1  0  0  0  0
 10 13  1  0  0  0  0
 10 14  1  0  0  0  0
 10 25  1  0  0  0  0
 11 13  1  0  0  0  0
 11 26  1  0  0  0  0
 11 27  1  0  0  0  0
 12 14  1  0  0  0  0
 12 28  1  0  0  0  0
 12 29  1  0  0  0  0
 13 30  1  0  0  0  0
 13 31  1  0  0  0  0
 14 32  1  0  0  0  0
 14 33  1  0  0  0  0
 15 34  1  0  0  0  0
 15 35  1  0  0  0  0
 16 18  1  0  0  0  0
 17 36  1  0  0  0  0
 17 37  1  0  0  0  0
 17 38  1  0  0  0  0
 18 19  2  0  0  0  0
 18 21  1  0  0  0  0
 20 40  1  0  0  0  0
 20 41  1  0  0  0  0
 20 42  1  0  0  0  0
 21 23  2  0  0  0  0
 21 43  1  0  0  0  0
 22 44  1  0  0  0  0
 23 46  1  0  0  0  0
M  END
> <PUBCHEM_COMPOUND_CID>
44631938

> <PUBCHEM_CONFORMER_RMSD>
0.8

> <PUBCHEM_CONFORMER_DIVERSEORDER>
1
11
205
22
288
174
245
37
62
301
217
195
5
146
204
133
307
6
270
120
92
234
125
52
189
117
113
153
185
201
280
320
278
239
124
105
284
90
56
166
241
299
141
48
132
297
83
32
172
45
72
200
229
122
211
317
107
292
64
31
228
291
266
43
248
150
27
193
213
215
186
34
121
79
255
309
235
58
289
219
60
227
143
264
192
137
86
199
158
154
134
163
319
191
184
171
96
167
63
33
224
271
164
100
304
138
12
106
55
24
101
126
259
287
28
7
314
10
223
277
162
20
159
221
103
197
168
17
148
29
109
169
209
295
74
50
66
87
232
53
23
110
118
140
70
293
302
303
47
9
156
269
296
180
2
247
281
61
127
81
244
102
286
176
76
8
196
145
231
316
38
35
236
179
19
267
14
68
93
151
290
283
218
75
41
139
311
310
108
194
3
306
220
272
254
240
242
265
262
230
318
18
279
160
115
312
135
84
98
216
130
206
149
257
177
249
275
71
77
182
246
198
251
273
42
256
94
258
142
25
225
178
69
80
253
131
274
73
67
82
294
51
119
88
313
123
315
226
243
298
170
16
261
155
173
44
268
78
187
250
212
36
233
175
300
237
238
129
207
95
21
97
188
208
91
222
305
104
39
4
285
144
263
147
214
99
57
49
308
112
202
59
165
157
26
260
161
183
15
40
65
282
152
114
190
116
46
181
85
276
128
136
89
13
111
54
210
252
30
203

> <PUBCHEM_MMFF94_PARTIAL_CHARGES>
22
1 1.33
10 0.37
15 0.11
16 0.41
17 0.37
19 0.11
2 -0.65
20 0.36
21 -0.15
22 0.47
23 -0.3
3 -0.65
39 0.42
4 -0.84
43 0.15
44 0.15
45 0.27
46 0.15
5 -0.91
6 -0.62
7 0.03
8 -0.57

> <PUBCHEM_EFFECTIVE_ROTOR_COUNT>
6.2

> <PUBCHEM_PHARMACOPHORE_FEATURES>
10
1 2 acceptor
1 3 acceptor
1 5 donor
1 7 cation
1 7 donor
3 4 6 16 cation
3 6 8 22 cation
5 7 18 19 21 23 rings
6 6 8 16 18 19 22 rings
6 9 10 11 12 13 14 rings

> <PUBCHEM_HEAVY_ATOM_COUNT>
23

> <PUBCHEM_ATOM_DEF_STEREO_COUNT>
0

> <PUBCHEM_ATOM_UDEF_STEREO_COUNT>
0

> <PUBCHEM_BOND_DEF_STEREO_COUNT>
0

> <PUBCHEM_BOND_UDEF_STEREO_COUNT>
0

> <PUBCHEM_ISOTOPIC_ATOM_COUNT>
0

> <PUBCHEM_COMPONENT_COUNT>
1

> <PUBCHEM_CACTVS_TAUTO_COUNT>
3

> <PUBCHEM_CONFORMER_ID>
02A9078200000001

> <PUBCHEM_MMFF94_ENERGY>
55.8144

> <PUBCHEM_FEATURE_SELFOVERLAP>
50.995

> <PUBCHEM_SHAPE_FINGERPRINT>
105312 117 16056878005853291413
10595046 47 18341046427646524575
11287383 113 17821727256142026658
11370993 144 18333454214305460571
11488393 25 16517362176446988283
12107183 9 17908423554676490371
12236239 1 18202563977604960456
12596602 18 18333736819148590913
12616971 3 18342728620650494646
12730499 353 18040436612055940906
12788726 201 17703799084823081512
12916748 109 16515398565102416284
13167372 99 18341896255582354296
13785724 45 17765720118188685718
13955234 65 18261100877799952578
14251752 14 17704076161874437204
14341114 176 18187651280202458765
14790565 3 18412266112383245233
15048467 5 18410293631182589628
15142383 8 18270113513887301240
15183329 4 17704356567494143833
15238133 3 17846494803339765040
1601671 61 17275107223383051720
17349148 13 10665223722452245845
17844677 252 18187363190564610597
18785283 64 16661783256457314444
19489759 90 14333128572591925707
20281389 69 17989204850273946001
20645477 56 17676761058808892334
20645477 70 18409445869849118598
21033648 29 17749932436825299885
21267235 1 18335421223844608694
21315759 148 17894642460881329475
22122407 14 18271821137176496681
22950370 63 18413102870580242255
23081809 10 18272365373967399391
23402539 116 17632289061019596433
2838139 119 17489017155576661257
3004659 81 18272089371106285774
314173 85 16443064993856952445
3545911 37 18113334237219488692
3633792 109 18041266743698915631
4073 2 17895481430865755578
5104073 3 18187357779285489690
5281201 14 18113891633732788726
5385378 56 15912782591838502007
542803 24 18202563994637201679
543358 83 18411981356362477498
6328613 192 18413390942901532825
8272917 22 18341614794023457990

> <PUBCHEM_SHAPE_MULTIPOLES>
440.54
14.78
2.02
1.31
6.13
0.37
0.21
3.5
-1.63
-0.97
-0.43
1.26
0.18
-1.64

> <PUBCHEM_SHAPE_SELFOVERLAP>
916.26

> <PUBCHEM_SHAPE_VOLUME>
253.4

> <PUBCHEM_COORDINATE_TYPE>
2
5
10

$$$$
46207957
  -OEChem-11282412143D

 70 74  0     0  0  0  0  0  0999 V2000
    2.1351    0.0269   -0.6497 F   0  0  0  0  0  0  0  0  0  0  0  0
   -7.2440    0.0583    0.1364 F   0  0  0  0  0  0  0  0  0  0  0  0
   -6.1279    0.9675    1.7659 F   0  0  0  0  0  0  0  0  0  0  0  0
   -6.0135    1.8135   -0.2278 F   0  0  0  0  0  0  0  0  0  0  0  0
    4.6089   -3.0651   -0.5539 O   0  0  0  0  0  0  0  0  0  0  0  0
   -3.2920    1.3215    0.9008 O   0  0  0  0  0  0  0  0  0  0  0  0
   -0.0984   -4.9785   -0.2871 O   0  0  0  0  0  0  0  0  0  0  0  0
   -2.6781    2.5552   -1.6805 O   0  0  0  0  0  0  0  0  0  0  0  0
    6.0822    2.2664    0.2731 N   0  0  0  0  0  0  0  0  0  0  0  0
    4.2967   -0.9496    0.3427 N   0  0  0  0  0  0  0  0  0  0  0  0
   -0.4263    3.2562   -1.7551 N   0  0  0  0  0  0  0  0  0  0  0  0
   -1.7597   -2.7540   -0.7440 N   0  0  0  0  0  0  0  0  0  0  0  0
   -2.5215   -0.6998    0.0842 N   0  0  0  0  0  0  0  0  0  0  0  0
   -4.0697   -2.3663   -0.7115 N   0  0  0  0  0  0  0  0  0  0  0  0
    5.6963   -0.6366    0.5250 C   0  0  0  0  0  0  0  0  0  0  0  0
    6.2850    0.0120   -0.7301 C   0  0  0  0  0  0  0  0  0  0  0  0
    5.9048    0.2766    1.7353 C   0  0  0  0  0  0  0  0  0  0  0  0
    5.7992    1.4528   -0.9170 C   0  0  0  0  0  0  0  0  0  0  0  0
    5.4314    1.7085    1.4660 C   0  0  0  0  0  0  0  0  0  0  0  0
    5.6601    3.6505    0.0595 C   0  0  0  0  0  0  0  0  0  0  0  0
    3.8688   -2.1554   -0.1891 C   0  0  0  0  0  0  0  0  0  0  0  0
    2.3989   -2.3124   -0.3362 C   0  0  0  0  0  0  0  0  0  0  0  0
    0.7223    3.2309   -0.8574 C   0  0  0  0  0  0  0  0  0  0  0  0
    0.1550    2.5689    0.3516 C   0  0  0  0  0  0  0  0  0  0  0  0
   -1.1890    2.2523    0.1489 C   0  0  0  0  0  0  0  0  0  0  0  0
    1.8242   -3.5802   -0.2446 C   0  0  0  0  0  0  0  0  0  0  0  0
    1.5934   -1.1962   -0.5620 C   0  0  0  0  0  0  0  0  0  0  0  0
   -1.5681    2.6897   -1.1993 C   0  0  0  0  0  0  0  0  0  0  0  0
   -1.9625    1.6303    1.1094 C   0  0  0  0  0  0  0  0  0  0  0  0
    0.4442   -3.7317   -0.3794 C   0  0  0  0  0  0  0  0  0  0  0  0
    0.7708    2.2622    1.5502 C   0  0  0  0  0  0  0  0  0  0  0  0
    0.2133   -1.3477   -0.6967 C   0  0  0  0  0  0  0  0  0  0  0  0
   -0.3613   -2.6155   -0.6055 C   0  0  0  0  0  0  0  0  0  0  0  0
   -0.3334    3.8249   -3.0822 C   0  0  0  0  0  0  0  0  0  0  0  0
   -1.3446    1.3188    2.3215 C   0  0  0  0  0  0  0  0  0  0  0  0
    0.0097    1.6319    2.5403 C   0  0  0  0  0  0  0  0  0  0  0  0
   -3.5765    0.0945    0.3615 C   0  0  0  0  0  0  0  0  0  0  0  0
   -2.8358   -1.8986   -0.4427 C   0  0  0  0  0  0  0  0  0  0  0  0
   -4.8887   -0.2664    0.1336 C   0  0  0  0  0  0  0  0  0  0  0  0
   -5.0771   -1.5209   -0.4097 C   0  0  0  0  0  0  0  0  0  0  0  0
   -0.4953   -5.4172    1.0105 C   0  0  0  0  0  0  0  0  0  0  0  0
   -6.0372    0.6220    0.4448 C   0  0  0  0  0  0  0  0  0  0  0  0
    6.2233   -1.5811    0.7079 H   0  0  0  0  0  0  0  0  0  0  0  0
    7.3801    0.0149   -0.6501 H   0  0  0  0  0  0  0  0  0  0  0  0
    6.0350   -0.5744   -1.6224 H   0  0  0  0  0  0  0  0  0  0  0  0
    5.3781   -0.1227    2.6106 H   0  0  0  0  0  0  0  0  0  0  0  0
    6.9729    0.2971    1.9885 H   0  0  0  0  0  0  0  0  0  0  0  0
    4.7260    1.4575   -1.1491 H   0  0  0  0  0  0  0  0  0  0  0  0
    6.3191    1.8755   -1.7855 H   0  0  0  0  0  0  0  0  0  0  0  0
    5.6858    2.3175    2.3423 H   0  0  0  0  0  0  0  0  0  0  0  0
    4.3390    1.7339    1.3654 H   0  0  0  0  0  0  0  0  0  0  0  0
    3.6153   -0.2410    0.5954 H   0  0  0  0  0  0  0  0  0  0  0  0
    4.5810    3.7318   -0.1156 H   0  0  0  0  0  0  0  0  0  0  0  0
    6.1829    4.0841   -0.8003 H   0  0  0  0  0  0  0  0  0  0  0  0
    5.9165    4.2693    0.9266 H   0  0  0  0  0  0  0  0  0  0  0  0
    1.0425    4.2561   -0.6524 H   0  0  0  0  0  0  0  0  0  0  0  0
    1.5226    2.6405   -1.3121 H   0  0  0  0  0  0  0  0  0  0  0  0
    2.4421   -4.4567   -0.0645 H   0  0  0  0  0  0  0  0  0  0  0  0
    1.8144    2.5000    1.7238 H   0  0  0  0  0  0  0  0  0  0  0  0
   -0.3655   -0.4609   -0.9256 H   0  0  0  0  0  0  0  0  0  0  0  0
    0.4270    3.2790   -3.6467 H   0  0  0  0  0  0  0  0  0  0  0  0
   -1.2950    3.7493   -3.5961 H   0  0  0  0  0  0  0  0  0  0  0  0
   -0.0463    4.8762   -2.9957 H   0  0  0  0  0  0  0  0  0  0  0  0
   -1.9087    0.8291    3.1116 H   0  0  0  0  0  0  0  0  0  0  0  0
    0.4699    1.3789    3.4920 H   0  0  0  0  0  0  0  0  0  0  0  0
   -2.0613   -3.6880   -1.0050 H   0  0  0  0  0  0  0  0  0  0  0  0
   -6.0672   -1.9067   -0.6300 H   0  0  0  0  0  0  0  0  0  0  0  0
    0.3711   -5.4717    1.6773 H   0  0  0  0  0  0  0  0  0  0  0  0
   -1.2518   -4.7481    1.4323 H   0  0  0  0  0  0  0  0  0  0  0  0
   -0.9273   -6.4173    0.9165 H   0  0  0  0  0  0  0  0  0  0  0  0
  1 27  1  0  0  0  0
  2 42  1  0  0  0  0
  3 42  1  0  0  0  0
  4 42  1  0  0  0  0
  5 21  2  0  0  0  0
  6 29  1  0  0  0  0
  6 37  1  0  0  0  0
  7 30  1  0  0  0  0
  7 41  1  0  0  0  0
  8 28  2  0  0  0  0
  9 18  1  0  0  0  0
  9 19  1  0  0  0  0
  9 20  1  0  0  0  0
 10 15  1  0  0  0  0
 10 21  1  0  0  0  0
 10 52  1  0  0  0  0
 11 23  1  0  0  0  0
 11 28  1  0  0  0  0
 11 34  1  0  0  0  0
 12 33  1  0  0  0  0
 12 38  1  0  0  0  0
 12 66  1  0  0  0  0
 13 37  2  0  0  0  0
 13 38  1  0  0  0  0
 14 38  2  0  0  0  0
 14 40  1  0  0  0  0
 15 16  1  0  0  0  0
 15 17  1  0  0  0  0
 15 43  1  0  0  0  0
 16 18  1  0  0  0  0
 16 44  1  0  0  0  0
 16 45  1  0  0  0  0
 17 19  1  0  0  0  0
 17 46  1  0  0  0  0
 17 47  1  0  0  0  0
 18 48  1  0  0  0  0
 18 49  1  0  0  0  0
 19 50  1  0  0  0  0
 19 51  1  0  0  0  0
 20 53  1  0  0  0  0
 20 54  1  0  0  0  0
 20 55  1  0  0  0  0
 21 22  1  0  0  0  0
 22 26  2  0  0  0  0
 22 27  1  0  0  0  0
 23 24  1  0  0  0  0
 23 56  1  0  0  0  0
 23 57  1  0  0  0  0
 24 25  2  0  0  0  0
 24 31  1  0  0  0  0
 25 28  1  0  0  0  0
 25 29  1  0  0  0  0
 26 30  1  0  0  0  0
 26 58  1  0  0  0  0
 27 32  2  0  0  0  0
 29 35  2  0  0  0  0
 30 33  2  0  0  0  0
 31 36  2  0  0  0  0
 31 59  1  0  0  0  0
 32 33  1  0  0  0  0
 32 60  1  0  0  0  0
 34 61  1  0  0  0  0
 34 62  1  0  0  0  0
 34 63  1  0  0  0  0
 35 36  1  0  0  0  0
 35 64  1  0  0  0  0
 36 65  1  0  0  0  0
 37 39  1  0  0  0  0
 39 40  2  0  0  0  0
 39 42  1  0  0  0  0
 40 67  1  0  0  0  0
 41 68  1  0  0  0  0
 41 69  1  0  0  0  0
 41 70  1  0  0  0  0
M  END
> <PUBCHEM_COMPOUND_CID>
46207957

> <PUBCHEM_CONFORMER_RMSD>
1.2

> <PUBCHEM_CONFORMER_DIVERSEORDER>
1
119
175
106
188
153
77
133
156
152
148
214
150
109
47
213
96
117
81
36
112
145
178
204
120
212
162
107
210
184
195
197
173
199
139
154
208
121
75
98
99
180
142
80
203
201
171
89
165
62
37
198
161
41
211
132
17
207
64
118
205
114
101
189
49
136
190
151
196
48
29
174
157
130
19
187
160
183
191
122
85
83
92
105
125
54
111
127
90
186
166
181
134
84
138
146
71
26
144
129
140
24
51
172
192
5
179
143
35
113
193
55
158
27
72
202
128
76
88
93
108
116
16
147
94
18
159
34
176
50
209
65
170
137
63
78
131
115
97
59
57
44
23
206
126
141
82
74
164
177
104
60
91
28
155
14
123
33
30
95
22
86
61
39
194
163
21
135
200
31
43
182
45
79
100
13
11
58
124
46
66
70
4
69
42
56
110
73
149
67
168
32
167
52
25
169
40
87
185
53
68
102
15
10
38
3
9
103
7
8
6
20
2
12

> <PUBCHEM_MMFF94_PARTIAL_CHARGES>
48
1 -0.19
10 -0.73
11 -0.66
12 -0.6
13 -0.62
14 -0.62
15 0.3
18 0.27
19 0.27
2 -0.34
20 0.27
21 0.54
22 0.09
23 0.44
24 -0.14
25 0.09
26 -0.15
27 0.19
28 0.54
29 0.08
3 -0.34
30 0.08
31 -0.15
32 -0.15
33 0.1
34 0.3
35 -0.15
36 -0.15
37 0.39
38 0.72
39 -0.14
4 -0.34
40 0.16
41 0.28
42 1.16
5 -0.57
52 0.37
58 0.15
59 0.15
6 -0.17
60 0.15
64 0.15
65 0.15
66 0.4
67 0.15
7 -0.36
8 -0.57
9 -0.81

> <PUBCHEM_EFFECTIVE_ROTOR_COUNT>
10.6

> <PUBCHEM_PHARMACOPHORE_FEATURES>
12
1 10 donor
1 12 donor
1 5 acceptor
1 7 acceptor
1 8 acceptor
1 9 cation
4 12 13 14 38 cation
5 11 23 24 25 28 rings
6 13 14 37 38 39 40 rings
6 22 26 27 30 32 33 rings
6 24 25 29 31 35 36 rings
6 9 15 16 17 18 19 rings

> <PUBCHEM_HEAVY_ATOM_COUNT>
42

> <PUBCHEM_ATOM_DEF_STEREO_COUNT>
0

> <PUBCHEM_ATOM_UDEF_STEREO_COUNT>
0

> <PUBCHEM_BOND_DEF_STEREO_COUNT>
0

> <PUBCHEM_BOND_UDEF_STEREO_COUNT>
0

> <PUBCHEM_ISOTOPIC_ATOM_COUNT>
0

> <PUBCHEM_COMPONENT_COUNT>
1

> <PUBCHEM_CACTVS_TAUTO_COUNT>
9

> <PUBCHEM_CONFORMER_ID>
02C113D500000001

> <PUBCHEM_MMFF94_ENERGY>
120.3485

> <PUBCHEM_FEATURE_SELFOVERLAP>
60.986

> <PUBCHEM_SHAPE_FINGERPRINT>
10258939 38 17895475830376036001
10290309 65 18267299837857153527
11513181 2 17197693015543833996
12422481 6 18410851105137422952
12677640 9 18053945332068938255
13165054 342 18122308451220719834
13560911 43 18191022305765745138
13561361 72 18409721877421638408
1361 2 18410859888920582560
14394314 77 18342183296974298449
14790565 3 18413390942932674570
14840074 17 18334019419032621368
14918310 93 18260259729291661081
15001296 14 18409447007862250578
16112460 7 18201731612732110282
17899979 19 18334581235214630933
20642791 178 18263937690565800725
20764821 26 17983543417425713362
392239 28 18059297565324645394
469060 322 18334301950238496918
50150288 127 16701187347930250281
5265222 85 18053102018965825328
6176135 31 18412256243033501304

> <PUBCHEM_SHAPE_MULTIPOLES>
781.88
14.29
6.2
1.79
3.66
4.98
-0.11
-4.6
-2.47
1.47
1.69
-0.04
-2.01
0.23

> <PUBCHEM_SHAPE_SELFOVERLAP>
1707.058

> <PUBCHEM_SHAPE_VOLUME>
426

> <PUBCHEM_COORDINATE_TYPE>
2
5
10

$$$$
126495573
  -OEChem-11282412143D

 54 58  0     0  0  0  0  0  0999 V2000
    5.0754   -0.5146    0.2603 S   0  0  0  0  0  0  0  0  0  0  0  0
   -1.0639    4.6406    0.3001 F   0  0  0  0  0  0  0  0  0  0  0  0
    0.8856    0.9075   -1.8792 O   0  0  0  0  0  0  0  0  0  0  0  0
   -3.0414   -1.8750    0.0594 N   0  0  0  0  0  0  0  0  0  0  0  0
   -4.7133    2.1190    0.1201 N   0  0  0  0  0  0  0  0  0  0  0  0
   -3.4860   -3.1427    0.0198 N   0  0  0  0  0  0  0  0  0  0  0  0
    0.0826   -3.4527    0.0862 N   0  0  0  0  0  0  0  0  0  0  0  0
    1.3000   -1.4210    0.1596 N   0  0  0  0  0  0  0  0  0  0  0  0
    2.4517   -3.5497    0.1326 N   0  0  0  0  0  0  0  0  0  0  0  0
   -4.0343   -0.7287    0.0663 C   0  0  0  0  0  0  0  0  0  0  0  0
   -3.9412    0.1157    1.3482 C   0  0  0  0  0  0  0  0  0  0  0  0
   -3.8890    0.1757   -1.1688 C   0  0  0  0  0  0  0  0  0  0  0  0
   -4.9221    1.2878    1.3060 C   0  0  0  0  0  0  0  0  0  0  0  0
   -4.8722    1.3452   -1.1114 C   0  0  0  0  0  0  0  0  0  0  0  0
   -1.6820   -1.7684    0.0900 C   0  0  0  0  0  0  0  0  0  0  0  0
   -1.2040   -3.0559    0.0691 C   0  0  0  0  0  0  0  0  0  0  0  0
   -2.3591   -3.8595    0.0260 C   0  0  0  0  0  0  0  0  0  0  0  0
    1.3599   -2.7628    0.1286 C   0  0  0  0  0  0  0  0  0  0  0  0
    2.7570    0.5865    0.2382 C   0  0  0  0  0  0  0  0  0  0  0  0
    2.5191   -0.8199    0.1995 C   0  0  0  0  0  0  0  0  0  0  0  0
    3.7074   -1.5492    0.2068 C   0  0  0  0  0  0  0  0  0  0  0  0
    4.0993    0.8882    0.2735 C   0  0  0  0  0  0  0  0  0  0  0  0
    1.7622    1.6303    0.2401 C   0  0  0  0  0  0  0  0  0  0  0  0
    3.6519   -2.9377    0.1724 C   0  0  0  0  0  0  0  0  0  0  0  0
    0.8593    1.7603   -0.8153 C   0  0  0  0  0  0  0  0  0  0  0  0
    4.7637    2.2125    0.3179 C   0  0  0  0  0  0  0  0  0  0  0  0
    1.7102    2.5171    1.3157 C   0  0  0  0  0  0  0  0  0  0  0  0
   -0.0953    2.7773   -0.7951 C   0  0  0  0  0  0  0  0  0  0  0  0
    0.7558    3.5341    1.3357 C   0  0  0  0  0  0  0  0  0  0  0  0
   -0.1470    3.6641    0.2803 C   0  0  0  0  0  0  0  0  0  0  0  0
    1.7098    1.2758   -2.9827 C   0  0  0  0  0  0  0  0  0  0  0  0
   -5.0178   -1.2180    0.0343 H   0  0  0  0  0  0  0  0  0  0  0  0
   -2.9209    0.4995    1.4781 H   0  0  0  0  0  0  0  0  0  0  0  0
   -4.1518   -0.5108    2.2233 H   0  0  0  0  0  0  0  0  0  0  0  0
   -4.0626   -0.4082   -2.0807 H   0  0  0  0  0  0  0  0  0  0  0  0
   -2.8646    0.5641   -1.2382 H   0  0  0  0  0  0  0  0  0  0  0  0
   -4.7895    1.9062    2.2005 H   0  0  0  0  0  0  0  0  0  0  0  0
   -5.9555    0.9214    1.3277 H   0  0  0  0  0  0  0  0  0  0  0  0
   -5.9035    0.9811   -1.1930 H   0  0  0  0  0  0  0  0  0  0  0  0
   -4.7035    2.0052   -1.9693 H   0  0  0  0  0  0  0  0  0  0  0  0
   -3.7685    2.5034    0.1486 H   0  0  0  0  0  0  0  0  0  0  0  0
   -1.1972   -0.8031    0.1236 H   0  0  0  0  0  0  0  0  0  0  0  0
   -2.4302   -4.9378   -0.0013 H   0  0  0  0  0  0  0  0  0  0  0  0
    0.2672   -4.4551    0.0661 H   0  0  0  0  0  0  0  0  0  0  0  0
    4.5295   -3.5712    0.1755 H   0  0  0  0  0  0  0  0  0  0  0  0
    4.7940    2.5933    1.3441 H   0  0  0  0  0  0  0  0  0  0  0  0
    5.7950    2.1699   -0.0500 H   0  0  0  0  0  0  0  0  0  0  0  0
    4.2398    2.9432   -0.3074 H   0  0  0  0  0  0  0  0  0  0  0  0
    2.3917    2.4275    2.1583 H   0  0  0  0  0  0  0  0  0  0  0  0
   -0.8040    2.8836   -1.6119 H   0  0  0  0  0  0  0  0  0  0  0  0
    0.7126    4.2226    2.1745 H   0  0  0  0  0  0  0  0  0  0  0  0
    1.6663    0.4734   -3.7242 H   0  0  0  0  0  0  0  0  0  0  0  0
    2.7507    1.4059   -2.6709 H   0  0  0  0  0  0  0  0  0  0  0  0
    1.3397    2.1973   -3.4431 H   0  0  0  0  0  0  0  0  0  0  0  0
  1 21  1  0  0  0  0
  1 22  1  0  0  0  0
  2 30  1  0  0  0  0
  3 25  1  0  0  0  0
  3 31  1  0  0  0  0
  4  6  1  0  0  0  0
  4 10  1  0  0  0  0
  4 15  1  0  0  0  0
  5 13  1  0  0  0  0
  5 14  1  0  0  0  0
  5 41  1  0  0  0  0
  6 17  2  0  0  0  0
  7 16  1  0  0  0  0
  7 18  1  0  0  0  0
  7 44  1  0  0  0  0
  8 18  1  0  0  0  0
  8 20  2  0  0  0  0
  9 18  2  0  0  0  0
  9 24  1  0  0  0  0
 10 11  1  0  0  0  0
 10 12  1  0  0  0  0
 10 32  1  0  0  0  0
 11 13  1  0  0  0  0
 11 33  1  0  0  0  0
 11 34  1  0  0  0  0
 12 14  1  0  0  0  0
 12 35  1  0  0  0  0
 12 36  1  0  0  0  0
 13 37  1  0  0  0  0
 13 38  1  0  0  0  0
 14 39  1  0  0  0  0
 14 40  1  0  0  0  0
 15 16  2  0  0  0  0
 15 42  1  0  0  0  0
 16 17  1  0  0  0  0
 17 43  1  0  0  0  0
 19 20  1  0  0  0  0
 19 22  2  0  0  0  0
 19 23  1  0  0  0  0
 20 21  1  0  0  0  0
 21 24  2  0  0  0  0
 22 26  1  0  0  0  0
 23 25  2  0  0  0  0
 23 27  1  0  0  0  0
 24 45  1  0  0  0  0
 25 28  1  0  0  0  0
 26 46  1  0  0  0  0
 26 47  1  0  0  0  0
 26 48  1  0  0  0  0
 27 29  2  0  0  0  0
 27 49  1  0  0  0  0
 28 30  2  0  0  0  0
 28 50  1  0  0  0  0
 29 30  1  0  0  0  0
 29 51  1  0  0  0  0
 31 52  1  0  0  0  0
 31 53  1  0  0  0  0
 31 54  1  0  0  0  0
M  END
> <PUBCHEM_COMPOUND_CID>
126495573

> <PUBCHEM_CONFORMER_RMSD>
0.8

> <PUBCHEM_CONFORMER_DIVERSEORDER>
1
134
155
171
107
235
220
216
195
243
31
135
22
222
199
184
209
254
25
148
96
91
175
12
26
52
30
45
87
114
76
231
19
35
141
68
14
153
211
241
189
44
187
94
48
71
129
58
89
229
215
38
13
139
53
248
39
81
165
116
246
59
149
136
8
29
194
240
221
256
121
258
133
137
99
238
49
77
61
242
167
126
115
3
185
170
42
204
233
86
228
250
109
21
55
90
124
4
163
203
51
145
120
144
46
5
97
188
127
50
237
226
54
37
169
23
159
196
158
79
84
7
117
236
17
88
105
74
75
253
82
206
20
180
118
152
257
110
18
62
80
157
201
198
186
245
122
166
101
41
125
179
119
177
176
239
247
27
232
11
95
67
178
208
255
230
72
100
138
69
251
57
123
43
182
16
160
34
9
202
225
214
56
104
108
73
10
207
224
93
33
161
150
200
47
212
24
85
197
66
156
191
32
112
102
252
154
190
65
128
40
213
217
103
60
181
218
140
130
113
168
244
151
15
227
192
36
28
162
174
234
64
78
63
205
147
2
219
132
164
193
172
83
210
70
223
92
6
143
111
146
142
106
249
173
183
98
131

> <PUBCHEM_MMFF94_PARTIAL_CHARGES>
37
1 -0.08
10 0.26
13 0.27
14 0.27
15 -0.3
16 0.08
17 0.14
18 0.72
19 -0.05
2 -0.19
20 0.26
21 0.04
22 -0.14
23 0.05
24 0.16
25 0.08
26 0.18
27 -0.15
28 -0.15
29 -0.15
3 -0.36
30 0.19
31 0.28
4 0.31
41 0.36
42 0.15
43 0.15
44 0.4
45 0.15
49 0.15
5 -0.9
50 0.15
51 0.15
6 -0.71
7 -0.58
8 -0.57
9 -0.62

> <PUBCHEM_EFFECTIVE_ROTOR_COUNT>
6.2

> <PUBCHEM_PHARMACOPHORE_FEATURES>
12
1 3 acceptor
1 5 cation
1 5 donor
1 6 acceptor
1 7 donor
1 8 acceptor
4 7 8 9 18 cation
5 1 19 20 21 22 rings
5 4 6 15 16 17 rings
6 23 25 27 28 29 30 rings
6 5 10 11 12 13 14 rings
6 8 9 18 20 21 24 rings

> <PUBCHEM_HEAVY_ATOM_COUNT>
31

> <PUBCHEM_ATOM_DEF_STEREO_COUNT>
0

> <PUBCHEM_ATOM_UDEF_STEREO_COUNT>
0

> <PUBCHEM_BOND_DEF_STEREO_COUNT>
0

> <PUBCHEM_BOND_UDEF_STEREO_COUNT>
0

> <PUBCHEM_ISOTOPIC_ATOM_COUNT>
0

> <PUBCHEM_COMPONENT_COUNT>
1

> <PUBCHEM_CACTVS_TAUTO_COUNT>
23

> <PUBCHEM_CONFORMER_ID>
078A2B5500000001

> <PUBCHEM_MMFF94_ENERGY>
72.1607

> <PUBCHEM_FEATURE_SELFOVERLAP>
60.976

> <PUBCHEM_SHAPE_FINGERPRINT>
10439779 11 18340757251788119235
11513181 2 17770213860812871375
11582403 64 15761338394153916464
12156800 1 17261910670115329582
12422481 6 18115845491728382610
12788726 201 18197506121217304638
12925494 130 18411981382480805219
13122387 1 18338516331416653795
13140716 1 18409157823350977082
13402501 40 18262512598878977837
144659 178 18408889559419583332
14466204 15 18194956560048079058
150020 26 18261971707867046123
15320467 1 18411417276600769729
1601671 61 18409447016409967426
20567600 299 18342734165052366530
20764821 26 18409164437162275773
21585483 110 18048590422821265693
350125 39 18266180715798775595
463206 1 18410579474277976409
5081480 168 17199150714048141367
508706 21 18041828602224390791
513532 50 17988094313090724679
550186 7 16685706636940370428
550186 83 17895176793420327600

> <PUBCHEM_SHAPE_MULTIPOLES>
598.79
9.81
5.84
1.39
5.09
0.6
-0.9
-0.07
1.18
0.49
0.93
0.13
-1.09
-0.05

> <PUBCHEM_SHAPE_SELFOVERLAP>
1300.782

> <PUBCHEM_SHAPE_VOLUME>
331

> <PUBCHEM_COORDINATE_TYPE>
2
5
10

$$$$
10074640
  -OEChem-11282412143D

 66 70  0     0  0  0  0  0  0999 V2000
   -6.4139    0.2331    1.8564 S   0  0  0  0  0  0  0  0  0  0  0  0
   -0.6681    0.0712    0.2591 O   0  0  0  0  0  0  0  0  0  0  0  0
    6.3269    0.6060   -0.3181 N   0  0  0  0  0  0  0  0  0  0  0  0
    8.5757   -0.1589    1.3301 N   0  0  0  0  0  0  0  0  0  0  0  0
   -0.3516   -2.0970   -0.5799 N   0  0  0  0  0  0  0  0  0  0  0  0
   -4.9523   -1.7637    0.8808 N   0  0  0  0  0  0  0  0  0  0  0  0
   -4.3405    0.4523    0.3281 N   0  0  0  0  0  0  0  0  0  0  0  0
   -2.8470    3.8942   -1.7074 N   0  0  0  0  0  0  0  0  0  0  0  0
    6.3360   -0.6652    0.4163 C   0  0  0  0  0  0  0  0  0  0  0  0
    7.6961    1.0083   -0.6624 C   0  0  0  0  0  0  0  0  0  0  0  0
    7.2068   -0.5629    1.6733 C   0  0  0  0  0  0  0  0  0  0  0  0
    8.5663    1.1118    0.5949 C   0  0  0  0  0  0  0  0  0  0  0  0
    5.4978    0.5066   -1.5175 C   0  0  0  0  0  0  0  0  0  0  0  0
    9.4036   -0.0581    2.5304 C   0  0  0  0  0  0  0  0  0  0  0  0
    4.0697    0.1639   -1.1855 C   0  0  0  0  0  0  0  0  0  0  0  0
    3.4097   -0.8069   -1.9256 C   0  0  0  0  0  0  0  0  0  0  0  0
    3.4334    0.8250   -0.1442 C   0  0  0  0  0  0  0  0  0  0  0  0
    2.0864   -1.1231   -1.6183 C   0  0  0  0  0  0  0  0  0  0  0  0
    2.1100    0.5087    0.1632 C   0  0  0  0  0  0  0  0  0  0  0  0
    1.4366   -0.4653   -0.5738 C   0  0  0  0  0  0  0  0  0  0  0  0
    0.0574   -0.7968   -0.2525 C   0  0  0  0  0  0  0  0  0  0  0  0
   -1.6269   -2.6895   -0.4093 C   0  0  0  0  0  0  0  0  0  0  0  0
   -3.9069   -2.5257    0.3138 C   0  0  0  0  0  0  0  0  0  0  0  0
   -2.6509   -1.9424    0.1471 C   0  0  0  0  0  0  0  0  0  0  0  0
   -4.1197   -3.8473   -0.0784 C   0  0  0  0  0  0  0  0  0  0  0  0
   -1.8205   -4.0022   -0.8042 C   0  0  0  0  0  0  0  0  0  0  0  0
   -3.0765   -4.5856   -0.6374 C   0  0  0  0  0  0  0  0  0  0  0  0
   -5.4544   -4.4973    0.0898 C   0  0  0  0  0  0  0  0  0  0  0  0
   -5.1183   -0.4077    0.9382 C   0  0  0  0  0  0  0  0  0  0  0  0
   -4.7954    1.7277    0.6008 C   0  0  0  0  0  0  0  0  0  0  0  0
   -5.9080    1.8102    1.4115 C   0  0  0  0  0  0  0  0  0  0  0  0
   -4.1417    2.8880    0.0676 C   0  0  0  0  0  0  0  0  0  0  0  0
   -4.1513    4.0949    0.7567 C   0  0  0  0  0  0  0  0  0  0  0  0
   -3.4821    2.8394   -1.1491 C   0  0  0  0  0  0  0  0  0  0  0  0
   -3.5091    5.2027    0.2146 C   0  0  0  0  0  0  0  0  0  0  0  0
   -2.8771    5.0515   -1.0091 C   0  0  0  0  0  0  0  0  0  0  0  0
    6.7098   -1.4792   -0.2204 H   0  0  0  0  0  0  0  0  0  0  0  0
    5.3357   -0.9564    0.7534 H   0  0  0  0  0  0  0  0  0  0  0  0
    7.6820    1.9892   -1.1528 H   0  0  0  0  0  0  0  0  0  0  0  0
    8.1491    0.2972   -1.3666 H   0  0  0  0  0  0  0  0  0  0  0  0
    7.2234   -1.5446    2.1623 H   0  0  0  0  0  0  0  0  0  0  0  0
    6.7537    0.1464    2.3794 H   0  0  0  0  0  0  0  0  0  0  0  0
    8.2001    1.9295    1.2307 H   0  0  0  0  0  0  0  0  0  0  0  0
    9.5870    1.3696    0.2874 H   0  0  0  0  0  0  0  0  0  0  0  0
    5.4864    1.4686   -2.0466 H   0  0  0  0  0  0  0  0  0  0  0  0
    5.9162   -0.2341   -2.2124 H   0  0  0  0  0  0  0  0  0  0  0  0
   10.4350    0.1994    2.2652 H   0  0  0  0  0  0  0  0  0  0  0  0
    9.0289    0.6971    3.2308 H   0  0  0  0  0  0  0  0  0  0  0  0
    9.4442   -1.0212    3.0512 H   0  0  0  0  0  0  0  0  0  0  0  0
    3.9022   -1.3191   -2.7473 H   0  0  0  0  0  0  0  0  0  0  0  0
    3.9351    1.5960    0.4337 H   0  0  0  0  0  0  0  0  0  0  0  0
    1.5925   -1.8598   -2.2449 H   0  0  0  0  0  0  0  0  0  0  0  0
    1.6229    1.0314    0.9824 H   0  0  0  0  0  0  0  0  0  0  0  0
    0.3419   -2.7371   -0.9570 H   0  0  0  0  0  0  0  0  0  0  0  0
   -2.4987   -0.9444    0.5162 H   0  0  0  0  0  0  0  0  0  0  0  0
   -1.0150   -4.5859   -1.2407 H   0  0  0  0  0  0  0  0  0  0  0  0
   -3.2247   -5.6166   -0.9476 H   0  0  0  0  0  0  0  0  0  0  0  0
   -5.6894   -2.3270    1.2947 H   0  0  0  0  0  0  0  0  0  0  0  0
   -5.6924   -4.6134    1.1523 H   0  0  0  0  0  0  0  0  0  0  0  0
   -5.4792   -5.4951   -0.3621 H   0  0  0  0  0  0  0  0  0  0  0  0
   -6.2377   -3.9075   -0.3980 H   0  0  0  0  0  0  0  0  0  0  0  0
   -6.4543    2.6770    1.7570 H   0  0  0  0  0  0  0  0  0  0  0  0
   -4.6347    4.2053    1.7237 H   0  0  0  0  0  0  0  0  0  0  0  0
   -3.4371    1.9307   -1.7425 H   0  0  0  0  0  0  0  0  0  0  0  0
   -3.4999    6.1535    0.7352 H   0  0  0  0  0  0  0  0  0  0  0  0
   -2.3606    5.8847   -1.4741 H   0  0  0  0  0  0  0  0  0  0  0  0
  1 29  1  0  0  0  0
  1 31  1  0  0  0  0
  2 21  2  0  0  0  0
  3  9  1  0  0  0  0
  3 10  1  0  0  0  0
  3 13  1  0  0  0  0
  4 11  1  0  0  0  0
  4 12  1  0  0  0  0
  4 14  1  0  0  0  0
  5 21  1  0  0  0  0
  5 22  1  0  0  0  0
  5 54  1  0  0  0  0
  6 23  1  0  0  0  0
  6 29  1  0  0  0  0
  6 58  1  0  0  0  0
  7 29  2  0  0  0  0
  7 30  1  0  0  0  0
  8 34  1  0  0  0  0
  8 36  2  0  0  0  0
  9 11  1  0  0  0  0
  9 37  1  0  0  0  0
  9 38  1  0  0  0  0
 10 12  1  0  0  0  0
 10 39  1  0  0  0  0
 10 40  1  0  0  0  0
 11 41  1  0  0  0  0
 11 42  1  0  0  0  0
 12 43  1  0  0  0  0
 12 44  1  0  0  0  0
 13 15  1  0  0  0  0
 13 45  1  0  0  0  0
 13 46  1  0  0  0  0
 14 47  1  0  0  0  0
 14 48  1  0  0  0  0
 14 49  1  0  0  0  0
 15 16  2  0  0  0  0
 15 17  1  0  0  0  0
 16 18  1  0  0  0  0
 16 50  1  0  0  0  0
 17 19  2  0  0  0  0
 17 51  1  0  0  0  0
 18 20  2  0  0  0  0
 18 52  1  0  0  0  0
 19 20  1  0  0  0  0
 19 53  1  0  0  0  0
 20 21  1  0  0  0  0
 22 24  2  0  0  0  0
 22 26  1  0  0  0  0
 23 24  1  0  0  0  0
 23 25  2  0  0  0  0
 24 55  1  0  0  0  0
 25 27  1  0  0  0  0
 25 28  1  0  0  0  0
 26 27  2  0  0  0  0
 26 56  1  0  0  0  0
 27 57  1  0  0  0  0
 28 59  1  0  0  0  0
 28 60  1  0  0  0  0
 28 61  1  0  0  0  0
 30 31  2  0  0  0  0
 30 32  1  0  0  0  0
 31 62  1  0  0  0  0
 32 33  1  0  0  0  0
 32 34  2  0  0  0  0
 33 35  2  0  0  0  0
 33 63  1  0  0  0  0
 34 64  1  0  0  0  0
 35 36  1  0  0  0  0
 35 65  1  0  0  0  0
 36 66  1  0  0  0  0
M  END
> <PUBCHEM_COMPOUND_CID>
10074640

> <PUBCHEM_CONFORMER_RMSD>
1

> <PUBCHEM_CONFORMER_DIVERSEORDER>
4
262
183
105
199
51
19
221
166
135
164
231
163
109
233
267
100
175
228
223
87
235
125
104
154
118
67
215
22
244
222
248
88
185
17
241
145
195
133
138
178
172
98
114
35
182
157
143
240
34
193
16
268
136
9
190
258
162
151
81
264
103
120
203
72
149
170
7
249
255
156
181
238
243
194
140
42
124
197
86
160
137
153
257
142
45
92
85
204
58
211
107
174
242
236
210
269
89
28
115
95
224
173
96
20
101
260
117
202
225
206
97
38
159
91
259
200
12
271
189
119
263
261
31
254
123
230
176
139
23
61
161
265
48
62
270
46
108
30
234
232
18
167
130
171
214
169
229
50
53
3
63
80
272
208
112
245
111
71
43
250
184
127
57
128
113
188
59
66
29
253
8
134
10
26
21
180
52
65
205
252
148
84
55
39
165
76
216
198
274
78
27
74
126
155
41
187
191
217
212
168
70
177
90
73
83
69
201
209
79
150
6
60
179
14
132
226
77
207
32
141
24
218
147
196
237
219
94
37
129
192
2
273
158
116
239
220
56
99
5
213
266
247
82
102
49
246
13
44
1
146
122
256
25
106
15
75
131
68
144
93
121
186
110
47
54
11
40
33
227
251
152
64
36

> <PUBCHEM_MMFF94_PARTIAL_CHARGES>
50
1 -0.08
10 0.27
11 0.27
12 0.27
13 0.41
14 0.27
15 -0.14
16 -0.15
17 -0.15
18 -0.15
19 -0.15
2 -0.57
20 0.09
21 0.54
22 0.12
23 0.1
24 -0.15
25 -0.14
26 -0.15
27 -0.15
28 0.14
29 0.46
3 -0.81
30 0.17
31 -0.11
32 0.05
33 -0.15
34 0.16
35 -0.15
36 0.16
4 -0.81
5 -0.55
50 0.15
51 0.15
52 0.15
53 0.15
54 0.37
55 0.15
56 0.15
57 0.15
58 0.4
6 -0.58
62 0.15
63 0.15
64 0.15
65 0.15
66 0.15
7 -0.57
8 -0.62
9 0.27

> <PUBCHEM_EFFECTIVE_ROTOR_COUNT>
9.2

> <PUBCHEM_PHARMACOPHORE_FEATURES>
12
1 2 acceptor
1 3 cation
1 4 cation
1 5 donor
1 6 donor
1 8 acceptor
3 6 7 29 cation
5 1 7 29 30 31 rings
6 15 16 17 18 19 20 rings
6 22 23 24 25 26 27 rings
6 3 4 9 10 11 12 rings
6 8 32 33 34 35 36 rings

> <PUBCHEM_HEAVY_ATOM_COUNT>
36

> <PUBCHEM_ATOM_DEF_STEREO_COUNT>
0

> <PUBCHEM_ATOM_UDEF_STEREO_COUNT>
0

> <PUBCHEM_BOND_DEF_STEREO_COUNT>
0

> <PUBCHEM_BOND_UDEF_STEREO_COUNT>
0

> <PUBCHEM_ISOTOPIC_ATOM_COUNT>
0

> <PUBCHEM_COMPONENT_COUNT>
1

> <PUBCHEM_CACTVS_TAUTO_COUNT>
4

> <PUBCHEM_CONFORMER_ID>
0099BA1000000004

> <PUBCHEM_MMFF94_ENERGY>
113.26

> <PUBCHEM_FEATURE_SELFOVERLAP>
60.9

> <PUBCHEM_SHAPE_FINGERPRINT>
100830 39 18410293614245437020
10290309 65 18195255412562663293
11093857 5 18050583845581174684
12104220 1 18411414042801515743
13540713 4 18059588940792103262
15021287 119 17312824887811239180
15150948 74 18270127799434286185
15326921 28 18339074870212140121
15328684 2 18259979384671928680
15328829 1 17603863399548960840
15400415 2 17833844772003227725
15419008 145 18409443713574705858
19304671 126 17199679463398790085
20766409 102 18119533387099991372
21033648 29 18269282252931958165
21133410 221 17773855640729219560
21772524 286 18412829063023268016
21792965 184 18113900422101182012
21792965 68 18336818706891251804
21859007 373 18270690770587782750
23522609 53 17896623832601081908
23569943 247 16661464287207472058
249057 25 17822579399597966692
25019877 29 17560261184441262735
3504750 166 18339919432671292894
354706 35 17754432588079689917
397638 26 18271804588893773424
4403749 210 18262792952295107845
44249763 50 18131073740051658334
5080951 261 18201426008898435295
6697151 62 16627451852964603646
6700243 42 17552404159372542879

> <PUBCHEM_SHAPE_MULTIPOLES>
708.96
23.94
6.59
1.67
61.36
2.34
0.33
4.67
14
-18.86
-1.85
2.21
0.39
-0.12

> <PUBCHEM_SHAPE_SELFOVERLAP>
1529.692

> <PUBCHEM_SHAPE_VOLUME>
392.2

> <PUBCHEM_COORDINATE_TYPE>
2
5
10

$$$$
11349170
  -OEChem-11282412143D

 51 54  0     1  0  0  0  0  0999 V2000
   -2.0459    4.2776    0.9516 O   0  0  0  0  0  0  0  0  0  0  0  0
   -3.2087   -2.7352   -1.4440 O   0  0  0  0  0  0  0  0  0  0  0  0
    0.7656    1.9826    0.2459 N   0  0  1  0  0  0  0  0  0  0  0  0
   -2.9614    2.9495   -1.5316 N   0  0  0  0  0  0  0  0  0  0  0  0
    3.6276   -1.2112   -0.3439 N   0  0  0  0  0  0  0  0  0  0  0  0
    3.6084   -2.5527   -0.5322 N   0  0  0  0  0  0  0  0  0  0  0  0
    0.2749   -0.5858    1.0944 N   0  0  0  0  0  0  0  0  0  0  0  0
    1.3752   -2.5010    0.3726 N   0  0  0  0  0  0  0  0  0  0  0  0
   -1.5653    3.1118   -1.1238 C   0  0  1  0  0  0  0  0  0  0  0  0
   -1.4405    3.1074    0.4058 C   0  0  1  0  0  0  0  0  0  0  0  0
   -0.7244    1.9820   -1.7245 C   0  0  0  0  0  0  0  0  0  0  0  0
    0.0310    3.1069    0.8365 C   0  0  0  0  0  0  0  0  0  0  0  0
    0.7191    2.0361   -1.2210 C   0  0  0  0  0  0  0  0  0  0  0  0
    2.1514    1.9736    0.7142 C   0  0  0  0  0  0  0  0  0  0  0  0
    2.9623    0.8068    0.2182 C   0  0  0  0  0  0  0  0  0  0  0  0
    2.5805   -0.4985    0.1805 C   0  0  0  0  0  0  0  0  0  0  0  0
    4.2646    0.9162   -0.2887 C   0  0  0  0  0  0  0  0  0  0  0  0
    4.6605   -0.3584   -0.6337 C   0  0  0  0  0  0  0  0  0  0  0  0
    1.3800   -1.2044    0.5596 C   0  0  0  0  0  0  0  0  0  0  0  0
    2.4915   -3.1151   -0.1655 C   0  0  0  0  0  0  0  0  0  0  0  0
   -1.0510   -0.9881    0.9602 C   0  0  0  0  0  0  0  0  0  0  0  0
   -1.4788   -1.6715   -0.1893 C   0  0  0  0  0  0  0  0  0  0  0  0
   -1.9867   -0.7179    1.9716 C   0  0  0  0  0  0  0  0  0  0  0  0
   -2.8074   -2.0744   -0.3237 C   0  0  0  0  0  0  0  0  0  0  0  0
   -3.3153   -1.1207    1.8372 C   0  0  0  0  0  0  0  0  0  0  0  0
   -3.7256   -1.7991    0.6896 C   0  0  0  0  0  0  0  0  0  0  0  0
   -4.5817   -3.1165   -1.5160 C   0  0  0  0  0  0  0  0  0  0  0  0
   -1.2152    4.0769   -1.5121 H   0  0  0  0  0  0  0  0  0  0  0  0
   -1.9540    2.2344    0.8280 H   0  0  0  0  0  0  0  0  0  0  0  0
   -0.7270    2.0539   -2.8193 H   0  0  0  0  0  0  0  0  0  0  0  0
   -1.1617    1.0079   -1.4734 H   0  0  0  0  0  0  0  0  0  0  0  0
    0.4956    4.0681    0.5751 H   0  0  0  0  0  0  0  0  0  0  0  0
    0.0671    3.0432    1.9321 H   0  0  0  0  0  0  0  0  0  0  0  0
    1.2402    1.1876   -1.6767 H   0  0  0  0  0  0  0  0  0  0  0  0
    1.2030    2.9489   -1.5940 H   0  0  0  0  0  0  0  0  0  0  0  0
    2.1664    1.9271    1.8117 H   0  0  0  0  0  0  0  0  0  0  0  0
    2.6548    2.9101    0.4366 H   0  0  0  0  0  0  0  0  0  0  0  0
   -3.0316    3.0086   -2.5466 H   0  0  0  0  0  0  0  0  0  0  0  0
   -3.5174    3.7174   -1.1577 H   0  0  0  0  0  0  0  0  0  0  0  0
   -1.9694    4.2241    1.9195 H   0  0  0  0  0  0  0  0  0  0  0  0
    4.8633    1.8097   -0.3987 H   0  0  0  0  0  0  0  0  0  0  0  0
    5.5850   -0.7256   -1.0586 H   0  0  0  0  0  0  0  0  0  0  0  0
    0.3986    0.2809    1.6078 H   0  0  0  0  0  0  0  0  0  0  0  0
    2.4108   -4.2072   -0.2930 H   0  0  0  0  0  0  0  0  0  0  0  0
   -0.7908   -1.8763   -1.0064 H   0  0  0  0  0  0  0  0  0  0  0  0
   -1.6816   -0.1889    2.8716 H   0  0  0  0  0  0  0  0  0  0  0  0
   -4.0296   -0.9051    2.6266 H   0  0  0  0  0  0  0  0  0  0  0  0
   -4.7717   -2.0825    0.6503 H   0  0  0  0  0  0  0  0  0  0  0  0
   -4.7246   -3.6301   -2.4724 H   0  0  0  0  0  0  0  0  0  0  0  0
   -5.2422   -2.2428   -1.5207 H   0  0  0  0  0  0  0  0  0  0  0  0
   -4.8429   -3.8306   -0.7276 H   0  0  0  0  0  0  0  0  0  0  0  0
  1 10  1  0  0  0  0
  1 40  1  0  0  0  0
  2 24  1  0  0  0  0
  2 27  1  0  0  0  0
  3 12  1  0  0  0  0
  3 13  1  0  0  0  0
  3 14  1  0  0  0  0
  4  9  1  0  0  0  0
  4 38  1  0  0  0  0
  4 39  1  0  0  0  0
  5  6  1  0  0  0  0
  5 16  1  0  0  0  0
  5 18  1  0  0  0  0
  6 20  2  0  0  0  0
  7 19  1  0  0  0  0
  7 21  1  0  0  0  0
  7 43  1  0  0  0  0
  8 19  2  0  0  0  0
  8 20  1  0  0  0  0
  9 10  1  0  0  0  0
  9 11  1  0  0  0  0
  9 28  1  0  0  0  0
 10 12  1  0  0  0  0
 10 29  1  0  0  0  0
 11 13  1  0  0  0  0
 11 30  1  0  0  0  0
 11 31  1  0  0  0  0
 12 32  1  0  0  0  0
 12 33  1  0  0  0  0
 13 34  1  0  0  0  0
 13 35  1  0  0  0  0
 14 15  1  0  0  0  0
 14 36  1  0  0  0  0
 14 37  1  0  0  0  0
 15 16  2  0  0  0  0
 15 17  1  0  0  0  0
 16 19  1  0  0  0  0
 17 18  2  0  0  0  0
 17 41  1  0  0  0  0
 18 42  1  0  0  0  0
 20 44  1  0  0  0  0
 21 22  2  0  0  0  0
 21 23  1  0  0  0  0
 22 24  1  0  0  0  0
 22 45  1  0  0  0  0
 23 25  2  0  0  0  0
 23 46  1  0  0  0  0
 24 26  2  0  0  0  0
 25 26  1  0  0  0  0
 25 47  1  0  0  0  0
 26 48  1  0  0  0  0
 27 49  1  0  0  0  0
 27 50  1  0  0  0  0
 27 51  1  0  0  0  0
M  END
> <PUBCHEM_COMPOUND_CID>
11349170

> <PUBCHEM_CONFORMER_RMSD>
0.8

> <PUBCHEM_CONFORMER_DIVERSEORDER>
1
197
192
124
164
58
80
161
51
155
174
27
191
122
33
173
119
167
56
148
182
180
74
37
171
157
40
143
77
86
101
194
13
88
189
24
162
165
184
12
18
8
170
190
5
196
138
118
181
133
47
142
130
82
2
176
53
178
185
110
195
172
6
160
188
141
19
35
32
153
109
186
152
36
139
67
38
9
75
146
3
114
68
52
84
150
166
87
31
129
169
65
163
112
60
7
145
93
127
106
104
70
149
99
183
131
39
175
121
147
63
95
154
48
92
158
73
91
136
113
41
43
44
132
57
76
89
16
54
111
177
66
98
108
135
134
79
21
64
83
85
105
49
50
123
144
90
15
103
115
69
137
25
187
4
14
42
97
159
17
94
100
10
168
107
126
193
23
128
72
116
62
125
102
46
26
22
20
156
28
30
59
11
117
96
34
81
120
78
151
140
55
45
179
61
71
29

> <PUBCHEM_MMFF94_PARTIAL_CHARGES>
37
1 -0.68
10 0.28
12 0.27
13 0.27
14 0.45
15 -0.18
16 -0.24
17 -0.15
18 -0.3
19 0.58
2 -0.36
20 0.6
21 0.1
22 -0.15
23 -0.15
24 0.08
25 -0.15
26 -0.15
27 0.28
3 -0.81
38 0.36
39 0.36
4 -0.99
40 0.4
41 0.15
42 0.15
43 0.4
44 0.06
45 0.15
46 0.15
47 0.15
48 0.15
5 0.51
6 -0.65
7 -0.55
8 -0.66
9 0.27

> <PUBCHEM_EFFECTIVE_ROTOR_COUNT>
6.2

> <PUBCHEM_PHARMACOPHORE_FEATURES>
13
1 1 acceptor
1 1 donor
1 2 acceptor
1 3 cation
1 4 cation
1 4 donor
1 7 donor
3 6 8 20 cation
3 7 8 19 cation
5 5 15 16 17 18 rings
6 21 22 23 24 25 26 rings
6 3 9 10 11 12 13 rings
6 5 6 8 16 19 20 rings

> <PUBCHEM_HEAVY_ATOM_COUNT>
27

> <PUBCHEM_ATOM_DEF_STEREO_COUNT>
2

> <PUBCHEM_ATOM_UDEF_STEREO_COUNT>
0

> <PUBCHEM_BOND_DEF_STEREO_COUNT>
0

> <PUBCHEM_BOND_UDEF_STEREO_COUNT>
0

> <PUBCHEM_ISOTOPIC_ATOM_COUNT>
0

> <PUBCHEM_COMPONENT_COUNT>
1

> <PUBCHEM_CACTVS_TAUTO_COUNT>
3

> <PUBCHEM_CONFORMER_ID>
00AD2CB200000001

> <PUBCHEM_MMFF94_ENERGY>
76.1411

> <PUBCHEM_FEATURE_SELFOVERLAP>
66.209

> <PUBCHEM_SHAPE_FINGERPRINT>
10064457 181 17976831878275671520
104564 63 18333737918074954552
10930396 42 17688271962922517360
1100329 8 17686622342755126266
11045515 52 18337387261982546455
11578080 2 17845631712365818161
12156800 1 17684320154205925993
12422481 6 17830776121270756737
12553582 1 18337397152980954130
12788726 201 18262787489602323403
13140716 1 17975984481807757242
13911987 19 17898018064731968566
13965767 371 17554093941113771275
14537116 161 17616478092755645935
17138139 8 17907538547086240781
17357779 13 18260827154384466964
17492 54 17609496017103180845
20028762 73 17334207936656022945
20567600 299 17906164406537608725
20600515 1 16951131797369120174
20775438 99 17765946780876102839
21236236 1 18334301933950158116
21304303 94 17903885917607619453
21344244 181 17840020737584611143
21641784 216 17969524721882148572
23419403 2 17487596731780577168
238 59 17470166328832979795
283562 15 18408886274117033760
3380486 145 18411710876106730889
3380486 77 17314769979821026920
46194498 28 17682662267113116991
463206 1 18195249055621331095
57527358 35 16054940773559646704
6443956 14 18194678396222296869
70251023 43 18410007715289524394
7237137 82 18120119216353981230
81228 2 18113625555681291872

> <PUBCHEM_SHAPE_MULTIPOLES>
514.02
7.56
5.2
1.57
0.3
3.86
-0.03
-6.28
-1.66
-2.38
-1.01
-1.68
0.25
-0.08

> <PUBCHEM_SHAPE_SELFOVERLAP>
1112.779

> <PUBCHEM_SHAPE_VOLUME>
279.3

> <PUBCHEM_COORDINATE_TYPE>
2
5
10

$$$$
25117126
  -OEChem-11282412143D

 56 58  0     0  0  0  0  0  0999 V2000
    0.8321    2.6780    1.8412 S   0  0  0  0  0  0  0  0  0  0  0  0
    4.3060   -3.9830    0.2774 F   0  0  0  0  0  0  0  0  0  0  0  0
    4.1147   -2.6290   -1.4060 F   0  0  0  0  0  0  0  0  0  0  0  0
    4.2954   -1.8340    0.6100 F   0  0  0  0  0  0  0  0  0  0  0  0
    0.3117    1.8048    2.8773 O   0  0  0  0  0  0  0  0  0  0  0  0
   -0.0448    3.1692    0.7948 O   0  0  0  0  0  0  0  0  0  0  0  0
   -6.8967    0.4721   -1.3087 O   0  0  0  0  0  0  0  0  0  0  0  0
    2.2358    1.9590    1.1581 N   0  0  0  0  0  0  0  0  0  0  0  0
    1.9967   -0.6346   -0.8090 N   0  0  0  0  0  0  0  0  0  0  0  0
    3.4186    3.4592   -0.2490 N   0  0  0  0  0  0  0  0  0  0  0  0
    2.4961    2.1277   -2.5386 N   0  0  0  0  0  0  0  0  0  0  0  0
    0.0625   -1.7873   -0.1605 N   0  0  0  0  0  0  0  0  0  0  0  0
   -1.8502   -2.9751    0.4999 N   0  0  0  0  0  0  0  0  0  0  0  0
    0.2358   -4.0296    0.7052 N   0  0  0  0  0  0  0  0  0  0  0  0
   -5.8468    2.0163    0.0660 N   0  0  0  0  0  0  0  0  0  0  0  0
    2.6072    2.3858   -0.1719 C   0  0  0  0  0  0  0  0  0  0  0  0
    1.2560    0.5456   -1.1991 C   0  0  0  0  0  0  0  0  0  0  0  0
    2.1540    1.7319   -1.2965 C   0  0  0  0  0  0  0  0  0  0  0  0
    1.4046   -1.7771   -0.2998 C   0  0  0  0  0  0  0  0  0  0  0  0
    3.3382    1.5607    2.0668 C   0  0  0  0  0  0  0  0  0  0  0  0
    2.2185   -2.8395    0.0366 C   0  0  0  0  0  0  0  0  0  0  0  0
    1.5260    4.0966    2.6639 C   0  0  0  0  0  0  0  0  0  0  0  0
   -0.4480   -2.9284    0.3404 C   0  0  0  0  0  0  0  0  0  0  0  0
    1.5725   -3.9506    0.5393 C   0  0  0  0  0  0  0  0  0  0  0  0
    3.6967   -2.8238   -0.1181 C   0  0  0  0  0  0  0  0  0  0  0  0
   -2.8704   -2.0425    0.2353 C   0  0  0  0  0  0  0  0  0  0  0  0
    3.7610    3.8549   -1.4911 C   0  0  0  0  0  0  0  0  0  0  0  0
    3.3077    3.2010   -2.6156 C   0  0  0  0  0  0  0  0  0  0  0  0
   -4.1459   -2.4849   -0.1150 C   0  0  0  0  0  0  0  0  0  0  0  0
   -2.6059   -0.6758    0.3231 C   0  0  0  0  0  0  0  0  0  0  0  0
   -4.8925   -0.1940   -0.2899 C   0  0  0  0  0  0  0  0  0  0  0  0
   -5.1571   -1.5607   -0.3776 C   0  0  0  0  0  0  0  0  0  0  0  0
   -3.6170    0.2485    0.0604 C   0  0  0  0  0  0  0  0  0  0  0  0
   -5.9469    0.7699   -0.5630 C   0  0  0  0  0  0  0  0  0  0  0  0
   -6.8253    3.0689   -0.0862 C   0  0  0  0  0  0  0  0  0  0  0  0
    0.4425    0.7595   -0.4974 H   0  0  0  0  0  0  0  0  0  0  0  0
    0.7796    0.3614   -2.1702 H   0  0  0  0  0  0  0  0  0  0  0  0
    2.9265   -0.7343   -1.2037 H   0  0  0  0  0  0  0  0  0  0  0  0
    2.9388    1.1163    2.9829 H   0  0  0  0  0  0  0  0  0  0  0  0
    3.9651    2.4191    2.3236 H   0  0  0  0  0  0  0  0  0  0  0  0
    3.9595    0.8006    1.5819 H   0  0  0  0  0  0  0  0  0  0  0  0
    0.7021    4.6535    3.1165 H   0  0  0  0  0  0  0  0  0  0  0  0
    2.2123    3.7670    3.4450 H   0  0  0  0  0  0  0  0  0  0  0  0
    2.0317    4.7271    1.9312 H   0  0  0  0  0  0  0  0  0  0  0  0
    2.1144   -4.8427    0.8364 H   0  0  0  0  0  0  0  0  0  0  0  0
    4.4129    4.7173   -1.5537 H   0  0  0  0  0  0  0  0  0  0  0  0
    3.5831    3.5196   -3.6134 H   0  0  0  0  0  0  0  0  0  0  0  0
   -2.1818   -3.9018    0.7505 H   0  0  0  0  0  0  0  0  0  0  0  0
   -4.3649   -3.5473   -0.1866 H   0  0  0  0  0  0  0  0  0  0  0  0
   -1.6410   -0.2873    0.6310 H   0  0  0  0  0  0  0  0  0  0  0  0
   -6.1453   -1.9262   -0.6446 H   0  0  0  0  0  0  0  0  0  0  0  0
   -3.3621    1.3026    0.1199 H   0  0  0  0  0  0  0  0  0  0  0  0
   -5.1053    2.1889    0.7362 H   0  0  0  0  0  0  0  0  0  0  0  0
   -6.3200    4.0309    0.0240 H   0  0  0  0  0  0  0  0  0  0  0  0
   -7.5771    2.9547    0.6986 H   0  0  0  0  0  0  0  0  0  0  0  0
   -7.3054    3.0070   -1.0659 H   0  0  0  0  0  0  0  0  0  0  0  0
  1  5  2  0  0  0  0
  1  6  2  0  0  0  0
  1  8  1  0  0  0  0
  1 22  1  0  0  0  0
  2 25  1  0  0  0  0
  3 25  1  0  0  0  0
  4 25  1  0  0  0  0
  7 34  2  0  0  0  0
  8 16  1  0  0  0  0
  8 20  1  0  0  0  0
  9 17  1  0  0  0  0
  9 19  1  0  0  0  0
  9 38  1  0  0  0  0
 10 16  2  0  0  0  0
 10 27  1  0  0  0  0
 11 18  2  0  0  0  0
 11 28  1  0  0  0  0
 12 19  2  0  0  0  0
 12 23  1  0  0  0  0
 13 23  1  0  0  0  0
 13 26  1  0  0  0  0
 13 48  1  0  0  0  0
 14 23  2  0  0  0  0
 14 24  1  0  0  0  0
 15 34  1  0  0  0  0
 15 35  1  0  0  0  0
 15 53  1  0  0  0  0
 16 18  1  0  0  0  0
 17 18  1  0  0  0  0
 17 36  1  0  0  0  0
 17 37  1  0  0  0  0
 19 21  1  0  0  0  0
 20 39  1  0  0  0  0
 20 40  1  0  0  0  0
 20 41  1  0  0  0  0
 21 24  2  0  0  0  0
 21 25  1  0  0  0  0
 22 42  1  0  0  0  0
 22 43  1  0  0  0  0
 22 44  1  0  0  0  0
 24 45  1  0  0  0  0
 26 29  2  0  0  0  0
 26 30  1  0  0  0  0
 27 28  2  0  0  0  0
 27 46  1  0  0  0  0
 28 47  1  0  0  0  0
 29 32  1  0  0  0  0
 29 49  1  0  0  0  0
 30 33  2  0  0  0  0
 30 50  1  0  0  0  0
 31 32  2  0  0  0  0
 31 33  1  0  0  0  0
 31 34  1  0  0  0  0
 32 51  1  0  0  0  0
 33 52  1  0  0  0  0
 35 54  1  0  0  0  0
 35 55  1  0  0  0  0
 35 56  1  0  0  0  0
M  END
> <PUBCHEM_COMPOUND_CID>
25117126

> <PUBCHEM_CONFORMER_RMSD>
1

> <PUBCHEM_CONFORMER_DIVERSEORDER>
1
256
37
202
122
151
115
238
221
181
207
273
160
51
41
112
223
220
204
157
199
64
243
144
98
65
117
260
192
178
130
278
150
195
284
43
247
203
86
193
67
48
104
85
155
274
62
233
158
237
183
61
126
270
231
264
164
294
246
109
127
166
66
279
174
194
84
36
53
113
116
108
228
39
189
239
42
250
213
146
295
68
57
185
55
285
276
80
8
190
244
75
128
184
208
139
82
125
76
34
97
20
182
173
142
72
111
222
119
259
169
148
253
28
261
210
180
200
87
33
131
216
286
288
44
177
196
132
22
23
18
234
287
170
218
15
176
81
163
291
292
168
232
206
91
154
30
141
52
135
63
14
187
114
4
124
156
103
143
60
162
6
137
149
175
107
258
95
77
153
78
236
58
99
201
118
235
70
275
188
281
217
240
255
212
59
31
211
245
271
25
94
277
90
54
268
24
197
96
73
171
56
40
280
7
272
138
147
100
186
26
282
224
140
93
136
145
283
290
123
69
252
27
267
45
12
38
257
49
71
269
263
19
83
230
251
74
152
172
32
11
229
227
248
110
179
79
50
225
13
35
105
46
265
249
209
219
241
215
214
2
129
89
262
167
120
101
165
121
92
134
9
5
254
205
47
198
16
102
133
29
266
106
159
226
191
161
10
293
88
21
242
3
17
289

> <PUBCHEM_MMFF94_PARTIAL_CHARGES>
45
1 1.33
10 -0.62
11 -0.62
12 -0.62
13 -0.6
14 -0.62
15 -0.73
16 0.51
17 0.51
18 0.17
19 0.41
2 -0.34
20 0.36
21 -0.14
22 0.11
23 0.72
24 0.16
25 1.16
26 0.1
27 0.16
28 0.16
29 -0.15
3 -0.34
30 -0.15
31 0.09
32 -0.15
33 -0.15
34 0.54
35 0.3
38 0.4
4 -0.34
45 0.15
46 0.15
47 0.15
48 0.4
49 0.15
5 -0.65
50 0.15
51 0.15
52 0.15
53 0.37
6 -0.65
7 -0.57
8 -0.69
9 -0.87

> <PUBCHEM_EFFECTIVE_ROTOR_COUNT>
10

> <PUBCHEM_PHARMACOPHORE_FEATURES>
12
1 10 acceptor
1 11 acceptor
1 13 donor
1 15 donor
1 5 acceptor
1 6 acceptor
1 7 acceptor
1 9 donor
4 12 13 14 23 cation
6 10 11 16 18 27 28 rings
6 12 14 19 21 23 24 rings
6 26 29 30 31 32 33 rings

> <PUBCHEM_HEAVY_ATOM_COUNT>
35

> <PUBCHEM_ATOM_DEF_STEREO_COUNT>
0

> <PUBCHEM_ATOM_UDEF_STEREO_COUNT>
0

> <PUBCHEM_BOND_DEF_STEREO_COUNT>
0

> <PUBCHEM_BOND_UDEF_STEREO_COUNT>
0

> <PUBCHEM_ISOTOPIC_ATOM_COUNT>
0

> <PUBCHEM_COMPONENT_COUNT>
1

> <PUBCHEM_CACTVS_TAUTO_COUNT>
15

> <PUBCHEM_CONFORMER_ID>
017F41C600000001

> <PUBCHEM_MMFF94_ENERGY>
109.941

> <PUBCHEM_FEATURE_SELFOVERLAP>
60.919

> <PUBCHEM_SHAPE_FINGERPRINT>
11059845 2 18120350298036276904
11331351 85 17913203165866646550
1200032 147 17677070017381972893
12166972 35 18338797784939841299
13617811 41 18047185543687621287
14068700 675 18126283043482930034
14347329 18 18046634674449036005
144659 178 18339924797069647232
15131766 46 15837559564255339666
15210252 30 18263926544720141962
15326921 28 17762051438812755936
15439362 3 18334018328094760060
18681886 176 18201427039839019315
19053607 189 18262511632559569157
20764821 26 18342464699284400281
21133410 230 17830992665158772034
21315764 21 18261967296513613745
21987440 362 18124856092360547016
23559900 14 18409162199822255775
3298306 158 18127127695983129083
469060 322 17901393286551479482
508706 21 17549825933211494631
513532 50 17346318236770751636
5252454 2 18052277355448779803
5265222 85 17759253182073559268
550186 83 16588578717621114765
57124632 79 18335137643642911063
9981440 41 17900266595674764139

> <PUBCHEM_SHAPE_MULTIPOLES>
644.86
12.44
6.79
2.02
24.3
1.79
0.39
-6.46
-4.13
-6.06
1.11
-2.76
-2.88
-0.39

> <PUBCHEM_SHAPE_SELFOVERLAP>
1363.375

> <PUBCHEM_SHAPE_VOLUME>
365.3

> <PUBCHEM_COORDINATE_TYPE>
2
5
10

$$$$
25212148
  -OEChem-11282412143D

 74 79  0     0  0  0  0  0  0999 V2000
   -3.2424   -1.5930    1.0488 S   0  0  0  0  0  0  0  0  0  0  0  0
    2.1267   -3.3056    2.9331 F   0  0  0  0  0  0  0  0  0  0  0  0
   10.4119   -0.7536   -3.9614 F   0  0  0  0  0  0  0  0  0  0  0  0
    3.6116    2.7425    0.6658 O   0  0  0  0  0  0  0  0  0  0  0  0
    7.8449    1.5111    1.5656 O   0  0  0  0  0  0  0  0  0  0  0  0
   -0.2234   -2.4412    1.7661 O   0  0  0  0  0  0  0  0  0  0  0  0
  -12.8187    3.6181   -1.1351 O   0  0  0  0  0  0  0  0  0  0  0  0
    4.3093    0.7903    1.7827 N   0  0  0  0  0  0  0  0  0  0  0  0
    6.8522    1.7793   -0.5475 N   0  0  0  0  0  0  0  0  0  0  0  0
   -1.7713   -3.5412   -1.9804 N   0  0  0  0  0  0  0  0  0  0  0  0
   -9.8256    1.5678   -0.5333 N   0  0  0  0  0  0  0  0  0  0  0  0
   -5.7176   -0.0516    0.7487 N   0  0  0  0  0  0  0  0  0  0  0  0
    5.8222    2.6529    1.4283 C   0  0  0  0  0  0  0  0  0  0  0  0
    6.0872    3.3668    2.7213 C   0  0  0  0  0  0  0  0  0  0  0  0
    5.9246    4.1499    1.4515 C   0  0  0  0  0  0  0  0  0  0  0  0
    4.4547    2.0722    1.2458 C   0  0  0  0  0  0  0  0  0  0  0  0
    6.9574    1.9147    0.8267 C   0  0  0  0  0  0  0  0  0  0  0  0
    3.1730   -0.0190    1.7799 C   0  0  0  0  0  0  0  0  0  0  0  0
    7.7609    1.1327   -1.4193 C   0  0  0  0  0  0  0  0  0  0  0  0
    3.2155   -1.2829    2.3686 C   0  0  0  0  0  0  0  0  0  0  0  0
    1.9946    0.4347    1.1870 C   0  0  0  0  0  0  0  0  0  0  0  0
    7.5013    1.0876   -2.7891 C   0  0  0  0  0  0  0  0  0  0  0  0
    8.9163    0.5412   -0.9085 C   0  0  0  0  0  0  0  0  0  0  0  0
    2.0800   -2.0928    2.3647 C   0  0  0  0  0  0  0  0  0  0  0  0
    0.8592   -0.3751    1.1828 C   0  0  0  0  0  0  0  0  0  0  0  0
    8.3969    0.4507   -3.6481 C   0  0  0  0  0  0  0  0  0  0  0  0
    9.8119   -0.0956   -1.7675 C   0  0  0  0  0  0  0  0  0  0  0  0
    0.9018   -1.6390    1.7718 C   0  0  0  0  0  0  0  0  0  0  0  0
    9.5522   -0.1409   -3.1372 C   0  0  0  0  0  0  0  0  0  0  0  0
   -0.7421   -2.7916    0.5503 C   0  0  0  0  0  0  0  0  0  0  0  0
   -2.0484   -2.4586    0.1655 C   0  0  0  0  0  0  0  0  0  0  0  0
   -2.5266   -2.8424   -1.0882 C   0  0  0  0  0  0  0  0  0  0  0  0
    0.0328   -3.5042   -0.3555 C   0  0  0  0  0  0  0  0  0  0  0  0
   -4.3785   -1.7277   -0.2195 C   0  0  0  0  0  0  0  0  0  0  0  0
   -3.8724   -2.4151   -1.2986 C   0  0  0  0  0  0  0  0  0  0  0  0
   -5.6874   -1.1425   -0.0494 C   0  0  0  0  0  0  0  0  0  0  0  0
   -0.5213   -3.8431   -1.5757 C   0  0  0  0  0  0  0  0  0  0  0  0
   -8.1007    0.0642    0.3579 C   0  0  0  0  0  0  0  0  0  0  0  0
   -9.3968    0.7507    0.6051 C   0  0  0  0  0  0  0  0  0  0  0  0
   -6.8033   -1.6812   -0.6695 C   0  0  0  0  0  0  0  0  0  0  0  0
   -8.0293   -1.0604   -0.4568 C   0  0  0  0  0  0  0  0  0  0  0  0
   -6.9267    0.5248    0.9319 C   0  0  0  0  0  0  0  0  0  0  0  0
  -11.0987    2.2102   -0.2516 C   0  0  0  0  0  0  0  0  0  0  0  0
  -11.5659    3.0235   -1.4481 C   0  0  0  0  0  0  0  0  0  0  0  0
  -13.3018    4.4124   -2.2098 C   0  0  0  0  0  0  0  0  0  0  0  0
    7.0758    3.3437    3.1640 H   0  0  0  0  0  0  0  0  0  0  0  0
    5.2896    3.4291    3.4534 H   0  0  0  0  0  0  0  0  0  0  0  0
    5.0323    4.7570    1.3562 H   0  0  0  0  0  0  0  0  0  0  0  0
    6.8099    4.6177    1.0352 H   0  0  0  0  0  0  0  0  0  0  0  0
    5.1272    0.3897    2.2371 H   0  0  0  0  0  0  0  0  0  0  0  0
    6.0372    2.1884   -0.9995 H   0  0  0  0  0  0  0  0  0  0  0  0
    4.1268   -1.6497    2.8340 H   0  0  0  0  0  0  0  0  0  0  0  0
    1.8847    1.4006    0.7139 H   0  0  0  0  0  0  0  0  0  0  0  0
    6.6047    1.5446   -3.2000 H   0  0  0  0  0  0  0  0  0  0  0  0
    9.1845    0.5354    0.1387 H   0  0  0  0  0  0  0  0  0  0  0  0
   -0.0534   -0.0031    0.7250 H   0  0  0  0  0  0  0  0  0  0  0  0
    8.1950    0.4150   -4.7146 H   0  0  0  0  0  0  0  0  0  0  0  0
   10.7118   -0.5571   -1.3713 H   0  0  0  0  0  0  0  0  0  0  0  0
    1.0490   -3.8048   -0.1219 H   0  0  0  0  0  0  0  0  0  0  0  0
   -4.4273   -2.6070   -2.2091 H   0  0  0  0  0  0  0  0  0  0  0  0
  -10.1552   -0.0115    0.8278 H   0  0  0  0  0  0  0  0  0  0  0  0
   -9.3179    1.3753    1.5046 H   0  0  0  0  0  0  0  0  0  0  0  0
    0.0640   -4.4024   -2.3003 H   0  0  0  0  0  0  0  0  0  0  0  0
   -6.7519   -2.5629   -1.2997 H   0  0  0  0  0  0  0  0  0  0  0  0
   -8.9216   -1.4625   -0.9288 H   0  0  0  0  0  0  0  0  0  0  0  0
   -9.1214    2.2801   -0.7262 H   0  0  0  0  0  0  0  0  0  0  0  0
  -11.0219    2.8681    0.6234 H   0  0  0  0  0  0  0  0  0  0  0  0
  -11.8661    1.4628   -0.0136 H   0  0  0  0  0  0  0  0  0  0  0  0
   -6.9157    1.3987    1.5758 H   0  0  0  0  0  0  0  0  0  0  0  0
  -11.6799    2.3768   -2.3267 H   0  0  0  0  0  0  0  0  0  0  0  0
  -10.8369    3.8094   -1.6813 H   0  0  0  0  0  0  0  0  0  0  0  0
  -14.2642    4.8400   -1.9162 H   0  0  0  0  0  0  0  0  0  0  0  0
  -13.4506    3.7991   -3.1039 H   0  0  0  0  0  0  0  0  0  0  0  0
  -12.6076    5.2305   -2.4248 H   0  0  0  0  0  0  0  0  0  0  0  0
  1 31  1  0  0  0  0
  1 34  1  0  0  0  0
  2 24  1  0  0  0  0
  3 29  1  0  0  0  0
  4 16  2  0  0  0  0
  5 17  2  0  0  0  0
  6 28  1  0  0  0  0
  6 30  1  0  0  0  0
  7 44  1  0  0  0  0
  7 45  1  0  0  0  0
  8 16  1  0  0  0  0
  8 18  1  0  0  0  0
  8 50  1  0  0  0  0
  9 17  1  0  0  0  0
  9 19  1  0  0  0  0
  9 51  1  0  0  0  0
 10 32  2  0  0  0  0
 10 37  1  0  0  0  0
 11 39  1  0  0  0  0
 11 43  1  0  0  0  0
 11 66  1  0  0  0  0
 12 36  2  0  0  0  0
 12 42  1  0  0  0  0
 13 14  1  0  0  0  0
 13 15  1  0  0  0  0
 13 16  1  0  0  0  0
 13 17  1  0  0  0  0
 14 15  1  0  0  0  0
 14 46  1  0  0  0  0
 14 47  1  0  0  0  0
 15 48  1  0  0  0  0
 15 49  1  0  0  0  0
 18 20  2  0  0  0  0
 18 21  1  0  0  0  0
 19 22  2  0  0  0  0
 19 23  1  0  0  0  0
 20 24  1  0  0  0  0
 20 52  1  0  0  0  0
 21 25  2  0  0  0  0
 21 53  1  0  0  0  0
 22 26  1  0  0  0  0
 22 54  1  0  0  0  0
 23 27  2  0  0  0  0
 23 55  1  0  0  0  0
 24 28  2  0  0  0  0
 25 28  1  0  0  0  0
 25 56  1  0  0  0  0
 26 29  2  0  0  0  0
 26 57  1  0  0  0  0
 27 29  1  0  0  0  0
 27 58  1  0  0  0  0
 30 31  2  0  0  0  0
 30 33  1  0  0  0  0
 31 32  1  0  0  0  0
 32 35  1  0  0  0  0
 33 37  2  0  0  0  0
 33 59  1  0  0  0  0
 34 35  2  0  0  0  0
 34 36  1  0  0  0  0
 35 60  1  0  0  0  0
 36 40  1  0  0  0  0
 37 63  1  0  0  0  0
 38 39  1  0  0  0  0
 38 41  1  0  0  0  0
 38 42  2  0  0  0  0
 39 61  1  0  0  0  0
 39 62  1  0  0  0  0
 40 41  2  0  0  0  0
 40 64  1  0  0  0  0
 41 65  1  0  0  0  0
 42 69  1  0  0  0  0
 43 44  1  0  0  0  0
 43 67  1  0  0  0  0
 43 68  1  0  0  0  0
 44 70  1  0  0  0  0
 44 71  1  0  0  0  0
 45 72  1  0  0  0  0
 45 73  1  0  0  0  0
 45 74  1  0  0  0  0
M  END
> <PUBCHEM_COMPOUND_CID>
25212148

> <PUBCHEM_CONFORMER_RMSD>
1.4

> <PUBCHEM_CONFORMER_DIVERSEORDER>
1
49
36
15
79
76
27
24
91
54
67
13
53
30
41
19
65
86
82
7
93
34
44
51
80
35
32
74
28
57
92
68
12
43
59
2
73
88
47
16
77
85
3
71
21
56
75
11
50
22
62
31
60
38
69
58
23
66
63
81
72
25
52
5
61
55
48
20
46
8
84
39
64
87
10
9
45
42
90
18
89
40
4
33
29
26
37
6
83
70
14
94
78
17

> <PUBCHEM_MMFF94_PARTIAL_CHARGES>
64
1 -0.08
10 -0.57
11 -0.9
12 -0.62
14 -0.2
15 -0.2
16 0.63
17 0.63
18 0.12
19 0.12
2 -0.19
20 -0.15
21 -0.15
22 -0.15
23 -0.15
24 0.19
25 -0.15
26 -0.15
27 -0.15
28 0.08
29 0.19
3 -0.19
30 0.08
31 0.04
32 0.26
33 -0.15
34 -0.01
35 -0.15
36 0.36
37 0.16
38 -0.14
39 0.41
4 -0.57
40 -0.15
41 -0.15
42 0.16
43 0.27
44 0.28
45 0.28
46 0.1
47 0.1
48 0.1
49 0.1
5 -0.57
50 0.37
51 0.37
52 0.15
53 0.15
54 0.15
55 0.15
56 0.15
57 0.15
58 0.15
59 0.15
6 -0.17
60 0.15
63 0.15
64 0.15
65 0.15
66 0.36
69 0.15
7 -0.56
8 -0.55
9 -0.55

> <PUBCHEM_EFFECTIVE_ROTOR_COUNT>
14.6

> <PUBCHEM_PHARMACOPHORE_FEATURES>
15
1 10 acceptor
1 11 cation
1 11 donor
1 12 acceptor
1 4 acceptor
1 5 acceptor
1 6 acceptor
1 7 acceptor
1 8 donor
1 9 donor
5 1 31 32 34 35 rings
6 10 30 31 32 33 37 rings
6 12 36 38 40 41 42 rings
6 18 20 21 24 25 28 rings
6 19 22 23 26 27 29 rings

> <PUBCHEM_HEAVY_ATOM_COUNT>
45

> <PUBCHEM_ATOM_DEF_STEREO_COUNT>
0

> <PUBCHEM_ATOM_UDEF_STEREO_COUNT>
0

> <PUBCHEM_BOND_DEF_STEREO_COUNT>
0

> <PUBCHEM_BOND_UDEF_STEREO_COUNT>
0

> <PUBCHEM_ISOTOPIC_ATOM_COUNT>
0

> <PUBCHEM_COMPONENT_COUNT>
1

> <PUBCHEM_CACTVS_TAUTO_COUNT>
4

> <PUBCHEM_CONFORMER_ID>
0180B4F400000001

> <PUBCHEM_MMFF94_ENERGY>
126.0118

> <PUBCHEM_FEATURE_SELFOVERLAP>
76.201

> <PUBCHEM_SHAPE_FINGERPRINT>
12013929 112 18342465850277379254
14664723 55 18131075960987444633
15274700 259 18410015390722396494
15350500 16 13398641537011867102
2026 5 9439401364132729793
20609170 85 17844797270201257520
21585482 111 18409440385481804401
21987483 16 8718558198903383460
23569914 152 17774732995975111346
3918712 181 18271800234187513777
397830 11 11891869737382477530
4149490 64 11023814103066811619
44426701 170 17703801292537128688
474113 269 15769510763830642350
5874358 3 14261087458681077310
6201320 221 15769512949795053342
6697151 62 13326298151465971714

> <PUBCHEM_SHAPE_MULTIPOLES>
867
45.44
5.3
3.31
83.77
1.66
1.89
60.54
39.43
8.33
0.24
-10.57
0.15
7.15

> <PUBCHEM_SHAPE_SELFOVERLAP>
1886.429

> <PUBCHEM_SHAPE_VOLUME>
477.8

> <PUBCHEM_COORDINATE_TYPE>
2
5
10

$$$$
44603533
  -OEChem-11282412143D

 63 68  0     0  0  0  0  0  0999 V2000
    2.4199   -2.3536    2.6804 F   0  0  0  0  0  0  0  0  0  0  0  0
   -8.1513    4.4851   -1.2795 F   0  0  0  0  0  0  0  0  0  0  0  0
    3.9607   -1.4141    0.6030 O   0  0  0  0  0  0  0  0  0  0  0  0
   -3.8101    0.5786    0.4715 O   0  0  0  0  0  0  0  0  0  0  0  0
   -2.2785   -2.3593    2.2659 O   0  0  0  0  0  0  0  0  0  0  0  0
    6.3083    3.5345    0.5046 N   0  0  0  0  0  0  0  0  0  0  0  0
   -5.8568   -0.4495   -0.0893 N   0  0  0  0  0  0  0  0  0  0  0  0
    5.7470    4.1738    1.5445 N   0  0  0  0  0  0  0  0  0  0  0  0
   -1.5917   -1.4567    0.2019 N   0  0  0  0  0  0  0  0  0  0  0  0
    6.0922   -2.0385   -3.3619 N   0  0  0  0  0  0  0  0  0  0  0  0
    6.5303   -2.9286   -2.4552 N   0  0  0  0  0  0  0  0  0  0  0  0
    5.8651    2.2513    0.3293 C   0  0  0  0  0  0  0  0  0  0  0  0
    4.9367    2.0431    1.3430 C   0  0  0  0  0  0  0  0  0  0  0  0
    5.5411    0.0436   -0.5065 C   0  0  0  0  0  0  0  0  0  0  0  0
    4.6046   -0.1922    0.5016 C   0  0  0  0  0  0  0  0  0  0  0  0
    6.1941    1.2759   -0.6144 C   0  0  0  0  0  0  0  0  0  0  0  0
    4.2891    0.8000    1.4384 C   0  0  0  0  0  0  0  0  0  0  0  0
    5.8565   -0.9844   -1.4634 C   0  0  0  0  0  0  0  0  0  0  0  0
    4.9131    3.2633    2.0519 C   0  0  0  0  0  0  0  0  0  0  0  0
   -6.5711   -1.6616   -0.1801 C   0  0  0  0  0  0  0  0  0  0  0  0
   -3.8927   -1.7525    0.6894 C   0  0  0  0  0  0  0  0  0  0  0  0
    7.2875    4.2268   -0.3011 C   0  0  0  0  0  0  0  0  0  0  0  0
   -4.5010   -0.4329    0.3344 C   0  0  0  0  0  0  0  0  0  0  0  0
   -6.4507    0.8274   -0.3974 C   0  0  0  0  0  0  0  0  0  0  0  0
    2.6031   -1.4240    0.5056 C   0  0  0  0  0  0  0  0  0  0  0  0
   -5.9822   -2.8226    0.1544 C   0  0  0  0  0  0  0  0  0  0  0  0
    5.6773   -0.8579   -2.8193 C   0  0  0  0  0  0  0  0  0  0  0  0
   -4.6243   -2.8676    0.6110 C   0  0  0  0  0  0  0  0  0  0  0  0
    6.3839   -2.2789   -1.2974 C   0  0  0  0  0  0  0  0  0  0  0  0
   -0.1792   -1.4454    0.3046 C   0  0  0  0  0  0  0  0  0  0  0  0
   -2.5076   -1.8945    1.1497 C   0  0  0  0  0  0  0  0  0  0  0  0
   -7.9594   -1.7007   -0.7642 C   0  0  0  0  0  0  0  0  0  0  0  0
    1.8311   -1.9030    1.5641 C   0  0  0  0  0  0  0  0  0  0  0  0
    1.9839   -0.9555   -0.6533 C   0  0  0  0  0  0  0  0  0  0  0  0
    0.4400   -1.9135    1.4635 C   0  0  0  0  0  0  0  0  0  0  0  0
    0.5928   -0.9662   -0.7537 C   0  0  0  0  0  0  0  0  0  0  0  0
   -7.5597    1.2727    0.3221 C   0  0  0  0  0  0  0  0  0  0  0  0
   -5.9163    1.6178   -1.4150 C   0  0  0  0  0  0  0  0  0  0  0  0
   -8.1344    2.5080    0.0239 C   0  0  0  0  0  0  0  0  0  0  0  0
   -6.4910    2.8532   -1.7133 C   0  0  0  0  0  0  0  0  0  0  0  0
   -7.6001    3.2983   -0.9939 C   0  0  0  0  0  0  0  0  0  0  0  0
    6.9280    1.4747   -1.3893 H   0  0  0  0  0  0  0  0  0  0  0  0
    3.5702    0.6212    2.2324 H   0  0  0  0  0  0  0  0  0  0  0  0
    4.3217    3.5254    2.9178 H   0  0  0  0  0  0  0  0  0  0  0  0
    6.9240    4.2613   -1.3311 H   0  0  0  0  0  0  0  0  0  0  0  0
    7.4235    5.2430    0.0784 H   0  0  0  0  0  0  0  0  0  0  0  0
    8.2312    3.6790   -0.2419 H   0  0  0  0  0  0  0  0  0  0  0  0
   -6.5001   -3.7719    0.0617 H   0  0  0  0  0  0  0  0  0  0  0  0
    5.2993   -0.0567   -3.4393 H   0  0  0  0  0  0  0  0  0  0  0  0
   -4.2190   -3.8424    0.8641 H   0  0  0  0  0  0  0  0  0  0  0  0
    6.6694   -2.7797   -0.3829 H   0  0  0  0  0  0  0  0  0  0  0  0
   -8.6904   -1.2868   -0.0636 H   0  0  0  0  0  0  0  0  0  0  0  0
   -8.2794   -2.7237   -0.9930 H   0  0  0  0  0  0  0  0  0  0  0  0
   -8.0058   -1.1405   -1.7040 H   0  0  0  0  0  0  0  0  0  0  0  0
    2.5687   -0.5874   -1.4916 H   0  0  0  0  0  0  0  0  0  0  0  0
   -1.9579   -1.1002   -0.6788 H   0  0  0  0  0  0  0  0  0  0  0  0
   -0.0910   -2.2985    2.3227 H   0  0  0  0  0  0  0  0  0  0  0  0
    0.1229   -0.6003   -1.6631 H   0  0  0  0  0  0  0  0  0  0  0  0
   -7.9774    0.6797    1.1314 H   0  0  0  0  0  0  0  0  0  0  0  0
   -5.0584    1.2811   -1.9913 H   0  0  0  0  0  0  0  0  0  0  0  0
    6.1034   -2.3036   -4.3388 H   0  0  0  0  0  0  0  0  0  0  0  0
   -8.9951    2.8571    0.5867 H   0  0  0  0  0  0  0  0  0  0  0  0
   -6.0765    3.4680   -2.5067 H   0  0  0  0  0  0  0  0  0  0  0  0
  1 33  1  0  0  0  0
  2 41  1  0  0  0  0
  3 15  1  0  0  0  0
  3 25  1  0  0  0  0
  4 23  2  0  0  0  0
  5 31  2  0  0  0  0
  6  8  1  0  0  0  0
  6 12  1  0  0  0  0
  6 22  1  0  0  0  0
  7 20  1  0  0  0  0
  7 23  1  0  0  0  0
  7 24  1  0  0  0  0
  8 19  2  0  0  0  0
  9 30  1  0  0  0  0
  9 31  1  0  0  0  0
  9 56  1  0  0  0  0
 10 11  1  0  0  0  0
 10 27  1  0  0  0  0
 10 61  1  0  0  0  0
 11 29  2  0  0  0  0
 12 13  1  0  0  0  0
 12 16  2  0  0  0  0
 13 17  2  0  0  0  0
 13 19  1  0  0  0  0
 14 15  2  0  0  0  0
 14 16  1  0  0  0  0
 14 18  1  0  0  0  0
 15 17  1  0  0  0  0
 16 42  1  0  0  0  0
 17 43  1  0  0  0  0
 18 27  2  0  0  0  0
 18 29  1  0  0  0  0
 19 44  1  0  0  0  0
 20 26  2  0  0  0  0
 20 32  1  0  0  0  0
 21 23  1  0  0  0  0
 21 28  2  0  0  0  0
 21 31  1  0  0  0  0
 22 45  1  0  0  0  0
 22 46  1  0  0  0  0
 22 47  1  0  0  0  0
 24 37  2  0  0  0  0
 24 38  1  0  0  0  0
 25 33  2  0  0  0  0
 25 34  1  0  0  0  0
 26 28  1  0  0  0  0
 26 48  1  0  0  0  0
 27 49  1  0  0  0  0
 28 50  1  0  0  0  0
 29 51  1  0  0  0  0
 30 35  2  0  0  0  0
 30 36  1  0  0  0  0
 32 52  1  0  0  0  0
 32 53  1  0  0  0  0
 32 54  1  0  0  0  0
 33 35  1  0  0  0  0
 34 36  2  0  0  0  0
 34 55  1  0  0  0  0
 35 57  1  0  0  0  0
 36 58  1  0  0  0  0
 37 39  1  0  0  0  0
 37 59  1  0  0  0  0
 38 40  2  0  0  0  0
 38 60  1  0  0  0  0
 39 41  2  0  0  0  0
 39 62  1  0  0  0  0
 40 41  1  0  0  0  0
 40 63  1  0  0  0  0
M  END
> <PUBCHEM_COMPOUND_CID>
44603533

> <PUBCHEM_CONFORMER_RMSD>
1

> <PUBCHEM_CONFORMER_DIVERSEORDER>
1
64
83
122
128
18
108
69
37
127
112
94
88
76
84
125
81
45
75
66
113
91
118
96
72
10
68
78
77
19
133
123
121
70
119
98
86
103
62
95
42
115
27
105
109
53
117
20
26
25
82
129
97
104
22
130
55
107
106
80
43
60
110
47
87
44
101
67
51
54
102
9
57
74
50
120
34
93
71
24
100
40
35
89
46
114
65
4
61
31
56
16
39
59
111
29
23
52
21
79
90
132
38
63
92
131
134
99
33
116
28
41
36
30
124
73
3
32
49
2
17
5
14
48
58
6
12
11
126
13
7
15
8
85

> <PUBCHEM_MMFF94_PARTIAL_CHARGES>
56
1 -0.19
10 0.3
11 -0.71
12 -0.15
14 0.05
15 0.08
16 -0.15
17 -0.15
18 -0.05
19 0.14
2 -0.19
20 -0.03
21 0.03
22 0.26
23 0.62
24 0.12
25 0.08
26 -0.15
27 -0.3
28 -0.15
29 0.14
3 -0.17
30 0.12
31 0.62
32 0.14
33 0.19
34 -0.15
35 -0.15
36 -0.15
37 -0.15
38 -0.15
39 -0.15
4 -0.57
40 -0.15
41 0.19
42 0.15
43 0.15
44 0.15
48 0.15
49 0.15
5 -0.57
50 0.15
51 0.15
55 0.15
56 0.37
57 0.15
58 0.15
59 0.15
6 0.31
60 0.15
61 0.27
62 0.15
63 0.15
7 -0.29
8 -0.71
9 -0.55

> <PUBCHEM_EFFECTIVE_ROTOR_COUNT>
7

> <PUBCHEM_PHARMACOPHORE_FEATURES>
13
1 10 donor
1 11 acceptor
1 3 acceptor
1 4 acceptor
1 5 acceptor
1 8 acceptor
1 9 donor
5 10 11 18 27 29 rings
5 6 8 12 13 19 rings
6 12 13 14 15 16 17 rings
6 24 37 38 39 40 41 rings
6 25 30 33 34 35 36 rings
6 7 20 21 23 26 28 rings

> <PUBCHEM_HEAVY_ATOM_COUNT>
41

> <PUBCHEM_ATOM_DEF_STEREO_COUNT>
0

> <PUBCHEM_ATOM_UDEF_STEREO_COUNT>
0

> <PUBCHEM_BOND_DEF_STEREO_COUNT>
0

> <PUBCHEM_BOND_UDEF_STEREO_COUNT>
0

> <PUBCHEM_ISOTOPIC_ATOM_COUNT>
0

> <PUBCHEM_COMPONENT_COUNT>
1

> <PUBCHEM_CACTVS_TAUTO_COUNT>
21

> <PUBCHEM_CONFORMER_ID>
02A8988D00000001

> <PUBCHEM_MMFF94_ENERGY>
136.9695

> <PUBCHEM_FEATURE_SELFOVERLAP>
66.068

> <PUBCHEM_SHAPE_FINGERPRINT>
10554248 39 17203336597822415654
10906281 52 16805616857850749819
10951579 204 18260838080792383572
11007060 377 18260831514747093883
11386260 185 18059859446337839052
11991303 11 16916501574946357287
12013929 112 17969800578599180590
12013929 29 18269270167421670545
12440610 7 18040442109003293947
13782708 43 9799692619091012195
14512766 119 18410294710089689061
14556957 393 16773809082128960361
14664723 55 18059013866362282545
15289351 153 18261097608823119922
15320295 198 18270684280407310705
15400415 2 17603578613385619827
1577012 14 18041278769307040307
19304671 126 18342455924207187304
20691028 202 18040997319883238401
21781055 127 17385729089487906738
21814621 53 18340495533709040374
23081809 10 16056334880910226498
23191077 185 18337939195071145027
23516275 100 18192425488303067100
23569914 152 17839746963089370206
24771293 8 18041276681541263908
34797466 226 18129951190462367242
3918712 181 18409160030690218248
42767 28 18413110541307580472
44317340 157 17988640826504600574
44880568 143 18413110563330938421
9831232 110 18131074788414731574

> <PUBCHEM_SHAPE_MULTIPOLES>
781.72
29.22
5.21
2.2
25.37
5.55
0.79
20.81
11.26
-0.59
-0.07
-4.09
-0.89
7.59

> <PUBCHEM_SHAPE_SELFOVERLAP>
1756.118

> <PUBCHEM_SHAPE_VOLUME>
414.2

> <PUBCHEM_COORDINATE_TYPE>
2
5
10

$$$$
44595079
  -OEChem-11282412143D

 58 61  0     0  0  0  0  0  0999 V2000
   -7.3202   -0.8057   -0.2291 S   0  0  0  0  0  0  0  0  0  0  0  0
   -7.4182   -2.2422   -0.0950 O   0  0  0  0  0  0  0  0  0  0  0  0
   -8.1069   -0.0757   -1.1984 O   0  0  0  0  0  0  0  0  0  0  0  0
    7.6974   -0.6215    1.4023 O   0  0  0  0  0  0  0  0  0  0  0  0
    4.6802   -1.7956    0.3074 N   0  0  0  0  0  0  0  0  0  0  0  0
   -5.6719   -0.3833   -0.4284 N   0  0  0  0  0  0  0  0  0  0  0  0
   -2.9951    0.5202   -0.1800 N   0  0  0  0  0  0  0  0  0  0  0  0
    3.4846    0.2403    0.0955 N   0  0  0  0  0  0  0  0  0  0  0  0
    2.3249    2.2656   -0.1143 N   0  0  0  0  0  0  0  0  0  0  0  0
    4.6655    2.3373   -0.0263 N   0  0  0  0  0  0  0  0  0  0  0  0
    7.8012   -0.7901   -0.8823 N   0  0  0  0  0  0  0  0  0  0  0  0
    3.4721   -2.6076    0.3248 C   0  0  0  0  0  0  0  0  0  0  0  0
    3.4974   -4.0516   -0.0831 C   0  0  0  0  0  0  0  0  0  0  0  0
    2.8031   -3.0398   -0.9470 C   0  0  0  0  0  0  0  0  0  0  0  0
   -5.3800    1.0782   -0.4112 C   0  0  0  0  0  0  0  0  0  0  0  0
   -4.7123   -1.1296    0.4336 C   0  0  0  0  0  0  0  0  0  0  0  0
   -3.9682    1.3208   -0.9367 C   0  0  0  0  0  0  0  0  0  0  0  0
   -3.2903   -0.9136   -0.0775 C   0  0  0  0  0  0  0  0  0  0  0  0
    4.6772   -0.3832    0.1931 C   0  0  0  0  0  0  0  0  0  0  0  0
   -1.6657    0.9567   -0.1641 C   0  0  0  0  0  0  0  0  0  0  0  0
   -7.6061   -0.0842    1.3662 C   0  0  0  0  0  0  0  0  0  0  0  0
    5.8896    0.2758    0.1881 C   0  0  0  0  0  0  0  0  0  0  0  0
   -1.3503    2.2137    0.3517 C   0  0  0  0  0  0  0  0  0  0  0  0
   -0.6557    0.1346   -0.6639 C   0  0  0  0  0  0  0  0  0  0  0  0
   -9.0300   -0.3023    1.8264 C   0  0  0  0  0  0  0  0  0  0  0  0
    0.9846    1.8267   -0.1326 C   0  0  0  0  0  0  0  0  0  0  0  0
    3.5513    1.5812   -0.0098 C   0  0  0  0  0  0  0  0  0  0  0  0
   -0.0254    2.6489    0.3674 C   0  0  0  0  0  0  0  0  0  0  0  0
    0.6694    0.5696   -0.6482 C   0  0  0  0  0  0  0  0  0  0  0  0
    5.8219    1.6495    0.0750 C   0  0  0  0  0  0  0  0  0  0  0  0
    7.1760   -0.3934    0.2964 C   0  0  0  0  0  0  0  0  0  0  0  0
    2.8319   -2.3674    1.1681 H   0  0  0  0  0  0  0  0  0  0  0  0
    2.8813   -4.7455    0.4754 H   0  0  0  0  0  0  0  0  0  0  0  0
    4.4285   -4.4687   -0.4463 H   0  0  0  0  0  0  0  0  0  0  0  0
    1.7203   -3.0494   -0.9679 H   0  0  0  0  0  0  0  0  0  0  0  0
    3.2684   -2.7786   -1.8895 H   0  0  0  0  0  0  0  0  0  0  0  0
    5.5378   -2.2041    0.6651 H   0  0  0  0  0  0  0  0  0  0  0  0
   -5.4467    1.4687    0.6098 H   0  0  0  0  0  0  0  0  0  0  0  0
   -6.0914    1.6177   -1.0442 H   0  0  0  0  0  0  0  0  0  0  0  0
   -4.9289   -2.2020    0.4107 H   0  0  0  0  0  0  0  0  0  0  0  0
   -4.7857   -0.7806    1.4693 H   0  0  0  0  0  0  0  0  0  0  0  0
   -3.7571    2.3942   -0.8703 H   0  0  0  0  0  0  0  0  0  0  0  0
   -3.9086    1.0435   -1.9970 H   0  0  0  0  0  0  0  0  0  0  0  0
   -3.1775   -1.3844   -1.0624 H   0  0  0  0  0  0  0  0  0  0  0  0
   -2.6010   -1.4072    0.6187 H   0  0  0  0  0  0  0  0  0  0  0  0
   -7.4280    0.9912    1.3069 H   0  0  0  0  0  0  0  0  0  0  0  0
   -6.9212   -0.5363    2.0867 H   0  0  0  0  0  0  0  0  0  0  0  0
   -2.1212    2.8629    0.7591 H   0  0  0  0  0  0  0  0  0  0  0  0
   -0.8681   -0.8398   -1.0949 H   0  0  0  0  0  0  0  0  0  0  0  0
   -9.1872    0.1518    2.8097 H   0  0  0  0  0  0  0  0  0  0  0  0
   -9.2615   -1.3695    1.9040 H   0  0  0  0  0  0  0  0  0  0  0  0
   -9.7452    0.1436    1.1276 H   0  0  0  0  0  0  0  0  0  0  0  0
    0.2079    3.6288    0.7761 H   0  0  0  0  0  0  0  0  0  0  0  0
    1.4155   -0.0820   -1.0904 H   0  0  0  0  0  0  0  0  0  0  0  0
    6.7176    2.2628    0.0621 H   0  0  0  0  0  0  0  0  0  0  0  0
    2.4343    3.2736   -0.0549 H   0  0  0  0  0  0  0  0  0  0  0  0
    8.6968   -1.2665   -0.8631 H   0  0  0  0  0  0  0  0  0  0  0  0
    7.3892   -0.6208   -1.7944 H   0  0  0  0  0  0  0  0  0  0  0  0
  1  2  2  0  0  0  0
  1  3  2  0  0  0  0
  1  6  1  0  0  0  0
  1 21  1  0  0  0  0
  4 31  2  0  0  0  0
  5 12  1  0  0  0  0
  5 19  1  0  0  0  0
  5 37  1  0  0  0  0
  6 15  1  0  0  0  0
  6 16  1  0  0  0  0
  7 17  1  0  0  0  0
  7 18  1  0  0  0  0
  7 20  1  0  0  0  0
  8 19  2  0  0  0  0
  8 27  1  0  0  0  0
  9 26  1  0  0  0  0
  9 27  1  0  0  0  0
  9 56  1  0  0  0  0
 10 27  2  0  0  0  0
 10 30  1  0  0  0  0
 11 31  1  0  0  0  0
 11 57  1  0  0  0  0
 11 58  1  0  0  0  0
 12 13  1  0  0  0  0
 12 14  1  0  0  0  0
 12 32  1  0  0  0  0
 13 14  1  0  0  0  0
 13 33  1  0  0  0  0
 13 34  1  0  0  0  0
 14 35  1  0  0  0  0
 14 36  1  0  0  0  0
 15 17  1  0  0  0  0
 15 38  1  0  0  0  0
 15 39  1  0  0  0  0
 16 18  1  0  0  0  0
 16 40  1  0  0  0  0
 16 41  1  0  0  0  0
 17 42  1  0  0  0  0
 17 43  1  0  0  0  0
 18 44  1  0  0  0  0
 18 45  1  0  0  0  0
 19 22  1  0  0  0  0
 20 23  2  0  0  0  0
 20 24  1  0  0  0  0
 21 25  1  0  0  0  0
 21 46  1  0  0  0  0
 21 47  1  0  0  0  0
 22 30  2  0  0  0  0
 22 31  1  0  0  0  0
 23 28  1  0  0  0  0
 23 48  1  0  0  0  0
 24 29  2  0  0  0  0
 24 49  1  0  0  0  0
 25 50  1  0  0  0  0
 25 51  1  0  0  0  0
 25 52  1  0  0  0  0
 26 28  2  0  0  0  0
 26 29  1  0  0  0  0
 28 53  1  0  0  0  0
 29 54  1  0  0  0  0
 30 55  1  0  0  0  0
M  END
> <PUBCHEM_COMPOUND_CID>
44595079

> <PUBCHEM_CONFORMER_RMSD>
1

> <PUBCHEM_CONFORMER_DIVERSEORDER>
1
31
47
21
37
33
30
15
42
46
35
36
11
26
32
44
43
40
41
34
6
7
12
8
38
18
20
14
23
29
39
28
24
10
25
5
9
13
27
17
19
22
16
45
2
3
4

> <PUBCHEM_MMFF94_PARTIAL_CHARGES>
44
1 1.33
10 -0.62
11 -0.8
12 0.07
13 -0.2
14 -0.2
15 0.36
16 0.36
17 0.37
18 0.37
19 0.41
2 -0.65
20 0.1
21 0.11
22 0.09
23 -0.15
24 -0.15
26 0.1
27 0.72
28 -0.15
29 -0.15
3 -0.65
30 0.16
31 0.54
32 0.1
33 0.1
34 0.1
35 0.1
36 0.1
37 0.4
4 -0.57
48 0.15
49 0.15
5 -0.67
53 0.15
54 0.15
55 0.15
56 0.4
57 0.37
58 0.37
6 -0.85
7 -0.84
8 -0.62
9 -0.6

> <PUBCHEM_EFFECTIVE_ROTOR_COUNT>
9.8

> <PUBCHEM_PHARMACOPHORE_FEATURES>
11
1 11 donor
1 2 acceptor
1 3 acceptor
1 4 acceptor
1 5 donor
1 7 cation
1 9 donor
4 8 9 10 27 cation
6 20 23 24 26 28 29 rings
6 6 7 15 16 17 18 rings
6 8 10 19 22 27 30 rings

> <PUBCHEM_HEAVY_ATOM_COUNT>
31

> <PUBCHEM_ATOM_DEF_STEREO_COUNT>
0

> <PUBCHEM_ATOM_UDEF_STEREO_COUNT>
0

> <PUBCHEM_BOND_DEF_STEREO_COUNT>
0

> <PUBCHEM_BOND_UDEF_STEREO_COUNT>
0

> <PUBCHEM_ISOTOPIC_ATOM_COUNT>
0

> <PUBCHEM_COMPONENT_COUNT>
1

> <PUBCHEM_CACTVS_TAUTO_COUNT>
21

> <PUBCHEM_CONFORMER_ID>
02A8778700000001

> <PUBCHEM_MMFF94_ENERGY>
108.068

> <PUBCHEM_FEATURE_SELFOVERLAP>
55.838

> <PUBCHEM_SHAPE_FINGERPRINT>
10 15 11743841378406164301
10050765 1 18195526987097015772
10299344 5 18412829109660499529
10580692 12 18411138005612415649
11719270 70 18410851071463044938
11963148 33 18409438206836697999
13533116 47 18343582936657869289
13673619 4 18259701211708007805
13685833 64 18408321103217419629
13692114 37 18338507638883492618
14251764 18 18202004356510143593
14344974 204 17025455546014918203
14556957 393 13623524624592467439
14856354 85 14057003850191177851
15119646 104 18413673500362502107
15183329 4 18335415773214436753
15328684 2 17346046563284152707
15352257 5 18334575750562408059
15510794 2 17967814964801276459
15510800 12 18040446468304616627
15721738 202 18201719510094726682
16090146 7 13840553904098757553
17492 89 18196370312963646510
19841028 212 18262515875675943562
20028762 73 18272368677483331878
20554085 129 14476965575398409749
20721686 56 18408888408257487091
21130935 74 18199468947405325267
21150785 3 13695586667994772001
21197605 99 18411417324215025646
21267235 1 18413392021376063596
22956985 138 17683229276391375418
23559900 14 18336539525469475872
23576562 1 11242552049986801619
3004659 81 18113894970780413664
3178227 256 18341611538733295840
4073 2 17968661634791275955
4093350 32 17131840828208739846
439807 62 18187363229477571016
4461854 278 18060703892421555110
5104073 3 18129948854136977081
59755656 215 18408322164575254974

> <PUBCHEM_SHAPE_MULTIPOLES>
589.34
25.95
3.23
1.01
25.72
2.1
0.21
8.76
5.6
-4.27
-0.19
1.31
0.13
0.41

> <PUBCHEM_SHAPE_SELFOVERLAP>
1231.023

> <PUBCHEM_SHAPE_VOLUME>
335.4

> <PUBCHEM_COORDINATE_TYPE>
2
5
10

$$$$
49831257
  -OEChem-11282412143D

 53 57  0     0  0  0  0  0  0999 V2000
   -6.1829    2.3028    0.4260 S   0  0  0  0  0  0  0  0  0  0  0  0
    6.0977    1.8407   -0.1429 O   0  0  0  0  0  0  0  0  0  0  0  0
   -6.0891    3.7413    0.2753 O   0  0  0  0  0  0  0  0  0  0  0  0
   -7.2820    1.6973    1.1520 O   0  0  0  0  0  0  0  0  0  0  0  0
   -4.4864   -0.1713   -0.4768 N   0  0  0  0  0  0  0  0  0  0  0  0
    3.7505    1.7185   -0.3420 N   0  0  0  0  0  0  0  0  0  0  0  0
    2.4470   -1.4442    0.0427 N   0  0  0  0  0  0  0  0  0  0  0  0
    2.2323   -0.1202   -0.1858 N   0  0  0  0  0  0  0  0  0  0  0  0
    4.4672   -0.5055    0.0787 N   0  0  0  0  0  0  0  0  0  0  0  0
    4.9467    3.8335   -0.5677 C   0  0  0  0  0  0  0  0  0  0  0  0
    5.5686    4.7601    0.4354 C   0  0  0  0  0  0  0  0  0  0  0  0
    4.0752    4.6844    0.3090 C   0  0  0  0  0  0  0  0  0  0  0  0
    5.0041    2.3573   -0.3269 C   0  0  0  0  0  0  0  0  0  0  0  0
   -5.7855    0.0853   -1.1221 C   0  0  0  0  0  0  0  0  0  0  0  0
   -4.4928    0.2178    0.9440 C   0  0  0  0  0  0  0  0  0  0  0  0
   -6.1099    1.5728   -1.1922 C   0  0  0  0  0  0  0  0  0  0  0  0
   -4.6582    1.7215    1.1289 C   0  0  0  0  0  0  0  0  0  0  0  0
   -4.1399   -1.5896   -0.6027 C   0  0  0  0  0  0  0  0  0  0  0  0
   -2.6652   -1.8255   -0.4113 C   0  0  0  0  0  0  0  0  0  0  0  0
    3.4649    0.3815   -0.1558 C   0  0  0  0  0  0  0  0  0  0  0  0
   -2.1939   -2.3588    0.7884 C   0  0  0  0  0  0  0  0  0  0  0  0
   -1.7705   -1.5113   -1.4342 C   0  0  0  0  0  0  0  0  0  0  0  0
    0.0671   -2.2638   -0.0579 C   0  0  0  0  0  0  0  0  0  0  0  0
    1.5105   -2.4942    0.1294 C   0  0  0  0  0  0  0  0  0  0  0  0
   -0.8279   -2.5779    0.9650 C   0  0  0  0  0  0  0  0  0  0  0  0
   -0.4044   -1.7304   -1.2575 C   0  0  0  0  0  0  0  0  0  0  0  0
    3.8247   -1.6449    0.2054 C   0  0  0  0  0  0  0  0  0  0  0  0
    1.9650   -3.7406    0.3777 C   0  0  0  0  0  0  0  0  0  0  0  0
    4.2788   -2.9665    0.4670 C   0  0  0  0  0  0  0  0  0  0  0  0
    3.3885   -3.9702    0.5510 C   0  0  0  0  0  0  0  0  0  0  0  0
    5.0358    4.1219   -1.6102 H   0  0  0  0  0  0  0  0  0  0  0  0
    6.0183    4.3401    1.3268 H   0  0  0  0  0  0  0  0  0  0  0  0
    6.0615    5.6499    0.0629 H   0  0  0  0  0  0  0  0  0  0  0  0
    3.5646    5.5224   -0.1500 H   0  0  0  0  0  0  0  0  0  0  0  0
    3.5299    4.2219    1.1226 H   0  0  0  0  0  0  0  0  0  0  0  0
   -5.7638   -0.2855   -2.1545 H   0  0  0  0  0  0  0  0  0  0  0  0
   -6.5878   -0.4545   -0.6025 H   0  0  0  0  0  0  0  0  0  0  0  0
   -5.2827   -0.3165    1.4880 H   0  0  0  0  0  0  0  0  0  0  0  0
   -3.5427   -0.0416    1.4223 H   0  0  0  0  0  0  0  0  0  0  0  0
   -7.0821    1.7373   -1.6668 H   0  0  0  0  0  0  0  0  0  0  0  0
   -5.3494    2.1154   -1.7638 H   0  0  0  0  0  0  0  0  0  0  0  0
   -3.8426    2.2700    0.6455 H   0  0  0  0  0  0  0  0  0  0  0  0
   -4.6701    1.9845    2.1911 H   0  0  0  0  0  0  0  0  0  0  0  0
   -4.7315   -2.2141    0.0808 H   0  0  0  0  0  0  0  0  0  0  0  0
   -4.3827   -1.9576   -1.6097 H   0  0  0  0  0  0  0  0  0  0  0  0
    2.9309    2.2952   -0.5142 H   0  0  0  0  0  0  0  0  0  0  0  0
   -2.8799   -2.6080    1.5937 H   0  0  0  0  0  0  0  0  0  0  0  0
   -2.1258   -1.0967   -2.3740 H   0  0  0  0  0  0  0  0  0  0  0  0
   -0.4800   -2.9888    1.9098 H   0  0  0  0  0  0  0  0  0  0  0  0
    0.2766   -1.4856   -2.0691 H   0  0  0  0  0  0  0  0  0  0  0  0
    1.3094   -4.6024    0.4485 H   0  0  0  0  0  0  0  0  0  0  0  0
    5.3393   -3.1503    0.5972 H   0  0  0  0  0  0  0  0  0  0  0  0
    3.7148   -4.9853    0.7501 H   0  0  0  0  0  0  0  0  0  0  0  0
  1  3  2  0  0  0  0
  1  4  2  0  0  0  0
  1 16  1  0  0  0  0
  1 17  1  0  0  0  0
  2 13  2  0  0  0  0
  5 14  1  0  0  0  0
  5 15  1  0  0  0  0
  5 18  1  0  0  0  0
  6 13  1  0  0  0  0
  6 20  1  0  0  0  0
  6 46  1  0  0  0  0
  7  8  1  0  0  0  0
  7 24  1  0  0  0  0
  7 27  1  0  0  0  0
  8 20  2  0  0  0  0
  9 20  1  0  0  0  0
  9 27  2  0  0  0  0
 10 11  1  0  0  0  0
 10 12  1  0  0  0  0
 10 13  1  0  0  0  0
 10 31  1  0  0  0  0
 11 12  1  0  0  0  0
 11 32  1  0  0  0  0
 11 33  1  0  0  0  0
 12 34  1  0  0  0  0
 12 35  1  0  0  0  0
 14 16  1  0  0  0  0
 14 36  1  0  0  0  0
 14 37  1  0  0  0  0
 15 17  1  0  0  0  0
 15 38  1  0  0  0  0
 15 39  1  0  0  0  0
 16 40  1  0  0  0  0
 16 41  1  0  0  0  0
 17 42  1  0  0  0  0
 17 43  1  0  0  0  0
 18 19  1  0  0  0  0
 18 44  1  0  0  0  0
 18 45  1  0  0  0  0
 19 21  2  0  0  0  0
 19 22  1  0  0  0  0
 21 25  1  0  0  0  0
 21 47  1  0  0  0  0
 22 26  2  0  0  0  0
 22 48  1  0  0  0  0
 23 24  1  0  0  0  0
 23 25  2  0  0  0  0
 23 26  1  0  0  0  0
 24 28  2  0  0  0  0
 25 49  1  0  0  0  0
 26 50  1  0  0  0  0
 27 29  1  0  0  0  0
 28 30  1  0  0  0  0
 28 51  1  0  0  0  0
 29 30  2  0  0  0  0
 29 52  1  0  0  0  0
 30 53  1  0  0  0  0
M  END
> <PUBCHEM_COMPOUND_CID>
49831257

> <PUBCHEM_CONFORMER_RMSD>
1

> <PUBCHEM_CONFORMER_DIVERSEORDER>
1
45
42
36
54
40
48
11
34
47
30
25
9
10
46
51
35
53
37
4
16
12
23
22
15
43
21
52
7
24
44
20
28
17
41
27
5
55
49
38
18
13
26
33
8
39
31
3
19
6
56
50
32
14
2
29

> <PUBCHEM_MMFF94_PARTIAL_CHARGES>
43
1 1.09
10 -0.1
11 -0.2
12 -0.2
13 0.63
14 0.27
15 0.27
16 0.11
17 0.11
18 0.41
19 -0.14
2 -0.57
20 0.58
21 -0.15
22 -0.15
23 0.03
24 -0.06
25 -0.15
26 -0.15
27 0.14
28 -0.15
29 -0.11
3 -0.65
30 -0.15
31 0.1
32 0.1
33 0.1
34 0.1
35 0.1
4 -0.65
46 0.37
47 0.15
48 0.15
49 0.15
5 -0.81
50 0.15
51 0.15
52 0.15
53 0.15
6 -0.49
7 0.6
8 -0.71
9 -0.57

> <PUBCHEM_EFFECTIVE_ROTOR_COUNT>
7.6

> <PUBCHEM_PHARMACOPHORE_FEATURES>
10
1 2 acceptor
1 3 acceptor
1 4 acceptor
1 5 cation
1 6 donor
3 7 9 27 cation
5 7 8 9 20 27 rings
6 1 5 14 15 16 17 rings
6 19 21 22 23 25 26 rings
6 7 24 27 28 29 30 rings

> <PUBCHEM_HEAVY_ATOM_COUNT>
30

> <PUBCHEM_ATOM_DEF_STEREO_COUNT>
0

> <PUBCHEM_ATOM_UDEF_STEREO_COUNT>
0

> <PUBCHEM_BOND_DEF_STEREO_COUNT>
0

> <PUBCHEM_BOND_UDEF_STEREO_COUNT>
0

> <PUBCHEM_ISOTOPIC_ATOM_COUNT>
0

> <PUBCHEM_COMPONENT_COUNT>
1

> <PUBCHEM_CACTVS_TAUTO_COUNT>
3

> <PUBCHEM_CONFORMER_ID>
02F85D5900000001

> <PUBCHEM_MMFF94_ENERGY>
67.9406

> <PUBCHEM_FEATURE_SELFOVERLAP>
50.887

> <PUBCHEM_SHAPE_FINGERPRINT>
100830 2 17987534623482185497
10595046 47 18412537743675390967
10675989 125 18409728444025818144
11479125 193 18410300237349018857
12061779 8 17272885093768191537
12422481 6 17241032336368794932
12925494 130 18335422421343633089
13944108 23 18341898433415882576
14251764 75 18412267271818628297
14429114 114 18340203106591923065
14790565 3 18194123147425052300
14849402 71 18336827490188964170
15142526 21 18261109690450793403
15198563 99 17837796434864322470
15326921 28 17691395731148840680
15980000 95 18049721820555291774
19053607 189 18340192085690160944
19438510 23 18187925139785208584
20058555 10 18338516442975527381
21223535 225 18199190779691382036
21315764 268 18190461550439852165
21792938 324 17906706148317465778
22122407 14 18410864226583817683
23569914 152 17843152297753068500
249057 25 18200014176255767775
2748736 6 18339350980711576304
2838139 119 18341050804102011782
397830 11 18187942664138460803
437795 171 18334005073726633853
484985 159 9764220703537536390
5104073 3 17967247615525491251
550186 72 17617099547699212171
57724786 102 18411133610879735647
5951187 136 18271817791401890510
6058803 2 18269534170018247302
7288768 16 17968653963906079162
7970288 3 11349209612856836836

> <PUBCHEM_SHAPE_MULTIPOLES>
578.72
18.06
6.68
1.08
15.12
5.14
0.1
22.75
-0.81
-10.33
-1.21
1.34
-0.06
-1.6

> <PUBCHEM_SHAPE_SELFOVERLAP>
1240.921

> <PUBCHEM_SHAPE_VOLUME>
321.3

> <PUBCHEM_COORDINATE_TYPE>
2
5
10

$$$$
68289010
  -OEChem-11282412143D

 41 45  0     1  0  0  0  0  0999 V2000
    0.5425    2.4985    0.5047 N   0  0  0  0  0  0  0  0  0  0  0  0
    2.5082   -1.5869    0.1050 N   0  0  0  0  0  0  0  0  0  0  0  0
    0.6469    3.7733    0.0797 N   0  0  0  0  0  0  0  0  0  0  0  0
   -1.0989    0.7002    0.2897 N   0  0  0  0  0  0  0  0  0  0  0  0
   -0.4476    4.0585   -0.6255 N   0  0  0  0  0  0  0  0  0  0  0  0
    4.0172   -2.5043   -1.2672 N   0  0  0  0  0  0  0  0  0  0  0  0
   -2.4415    2.7715   -1.2264 N   0  0  0  0  0  0  0  0  0  0  0  0
   -3.2273   -2.8238    0.4616 N   0  0  0  0  0  0  0  0  0  0  0  0
   -4.3312   -2.5354   -0.2487 N   0  0  0  0  0  0  0  0  0  0  0  0
    1.6431    1.8681    1.3401 C   0  0  2  0  0  0  0  0  0  0  0  0
    2.2726    0.7025    0.6481 C   0  0  0  0  0  0  0  0  0  0  0  0
    1.1364    1.4865    2.7365 C   0  0  0  0  0  0  0  0  0  0  0  0
   -0.6210    1.9363    0.0827 C   0  0  0  0  0  0  0  0  0  0  0  0
    1.8545   -0.5692    0.7945 C   0  0  0  0  0  0  0  0  0  0  0  0
    3.4064    0.9626   -0.2374 C   0  0  0  0  0  0  0  0  0  0  0  0
    3.5891   -1.3735   -0.7443 C   0  0  0  0  0  0  0  0  0  0  0  0
   -1.2357    2.9453   -0.6343 C   0  0  0  0  0  0  0  0  0  0  0  0
    4.0325   -0.0288   -0.9001 C   0  0  0  0  0  0  0  0  0  0  0  0
   -2.3027    0.5398   -0.3062 C   0  0  0  0  0  0  0  0  0  0  0  0
    2.2600   -2.9357    0.1009 C   0  0  0  0  0  0  0  0  0  0  0  0
   -2.9093   -0.7506   -0.1482 C   0  0  0  0  0  0  0  0  0  0  0  0
   -2.9463    1.5318   -1.0327 C   0  0  0  0  0  0  0  0  0  0  0  0
    3.1984   -3.4746   -0.7476 C   0  0  0  0  0  0  0  0  0  0  0  0
   -2.3440   -1.7885    0.5518 C   0  0  0  0  0  0  0  0  0  0  0  0
   -4.1312   -1.2677   -0.6185 C   0  0  0  0  0  0  0  0  0  0  0  0
   -3.0711   -4.1359    1.0419 C   0  0  0  0  0  0  0  0  0  0  0  0
    2.3808    2.6716    1.4728 H   0  0  0  0  0  0  0  0  0  0  0  0
    1.9294    1.0287    3.3383 H   0  0  0  0  0  0  0  0  0  0  0  0
    0.8014    2.3861    3.2667 H   0  0  0  0  0  0  0  0  0  0  0  0
    0.2786    0.8066    2.7142 H   0  0  0  0  0  0  0  0  0  0  0  0
    1.0257   -0.8719    1.4214 H   0  0  0  0  0  0  0  0  0  0  0  0
    3.7424    1.9876   -0.3589 H   0  0  0  0  0  0  0  0  0  0  0  0
    4.8713    0.1825   -1.5540 H   0  0  0  0  0  0  0  0  0  0  0  0
    1.4632   -3.3795    0.6820 H   0  0  0  0  0  0  0  0  0  0  0  0
   -3.9129    1.3782   -1.5018 H   0  0  0  0  0  0  0  0  0  0  0  0
    3.3252   -4.5145   -1.0109 H   0  0  0  0  0  0  0  0  0  0  0  0
   -1.4133   -1.8851    1.0953 H   0  0  0  0  0  0  0  0  0  0  0  0
   -4.8926   -0.7858   -1.2155 H   0  0  0  0  0  0  0  0  0  0  0  0
   -3.8957   -4.3039    1.7391 H   0  0  0  0  0  0  0  0  0  0  0  0
   -3.0923   -4.8734    0.2356 H   0  0  0  0  0  0  0  0  0  0  0  0
   -2.1169   -4.1899    1.5718 H   0  0  0  0  0  0  0  0  0  0  0  0
  1  3  1  0  0  0  0
  1 10  1  0  0  0  0
  1 13  1  0  0  0  0
  2 14  1  0  0  0  0
  2 16  1  0  0  0  0
  2 20  1  0  0  0  0
  3  5  2  0  0  0  0
  4 13  2  0  0  0  0
  4 19  1  0  0  0  0
  5 17  1  0  0  0  0
  6 16  2  0  0  0  0
  6 23  1  0  0  0  0
  7 17  2  0  0  0  0
  7 22  1  0  0  0  0
  8  9  1  0  0  0  0
  8 24  1  0  0  0  0
  8 26  1  0  0  0  0
  9 25  2  0  0  0  0
 10 11  1  0  0  0  0
 10 12  1  0  0  0  0
 10 27  1  0  0  0  0
 11 14  2  0  0  0  0
 11 15  1  0  0  0  0
 12 28  1  0  0  0  0
 12 29  1  0  0  0  0
 12 30  1  0  0  0  0
 13 17  1  0  0  0  0
 14 31  1  0  0  0  0
 15 18  2  0  0  0  0
 15 32  1  0  0  0  0
 16 18  1  0  0  0  0
 18 33  1  0  0  0  0
 19 21  1  0  0  0  0
 19 22  2  0  0  0  0
 20 23  2  0  0  0  0
 20 34  1  0  0  0  0
 21 24  2  0  0  0  0
 21 25  1  0  0  0  0
 22 35  1  0  0  0  0
 23 36  1  0  0  0  0
 24 37  1  0  0  0  0
 25 38  1  0  0  0  0
 26 39  1  0  0  0  0
 26 40  1  0  0  0  0
 26 41  1  0  0  0  0
M  END
> <PUBCHEM_COMPOUND_CID>
68289010

> <PUBCHEM_CONFORMER_RMSD>
0.6

> <PUBCHEM_CONFORMER_DIVERSEORDER>
1
14
35
124
38
158
130
100
5
129
84
157
52
109
128
96
137
143
127
13
116
87
22
77
69
126
7
138
42
15
91
142
133
161
30
65
71
150
118
162
111
98
32
113
34
154
27
95
160
117
89
81
131
54
63
45
76
155
120
47
48
125
55
145
140
106
102
58
60
8
144
149
56
16
24
90
66
61
122
135
103
151
119
152
50
33
99
85
147
107
36
57
141
23
83
110
136
72
20
121
92
21
156
62
73
82
6
88
70
51
146
97
148
39
79
41
104
44
12
86
123
67
18
25
49
153
11
108
112
2
17
132
74
29
105
94
115
159
75
37
9
114
31
53
139
3
19
40
43
134
93
78
26
59
64
101
10
68
80
4
28
46

> <PUBCHEM_MMFF94_PARTIAL_CHARGES>
33
1 0.31
10 0.39
11 -0.14
13 0.11
14 -0.18
15 -0.15
16 0.14
17 0.48
18 -0.11
19 0.36
2 0.33
20 -0.3
21 -0.05
22 0.16
23 0.08
24 -0.3
25 0.14
26 0.26
3 -0.42
31 0.15
32 0.15
33 0.15
34 0.15
35 0.15
36 0.15
37 0.15
38 0.15
4 -0.57
5 -0.23
6 -0.57
7 -0.57
8 0.31
9 -0.71

> <PUBCHEM_EFFECTIVE_ROTOR_COUNT>
3

> <PUBCHEM_PHARMACOPHORE_FEATURES>
9
1 9 acceptor
3 1 4 13 cation
3 2 6 16 cation
3 5 7 17 cation
5 1 3 5 13 17 rings
5 2 6 16 20 23 rings
5 8 9 21 24 25 rings
6 2 11 14 15 16 18 rings
6 4 7 13 17 19 22 rings

> <PUBCHEM_HEAVY_ATOM_COUNT>
26

> <PUBCHEM_ATOM_DEF_STEREO_COUNT>
1

> <PUBCHEM_ATOM_UDEF_STEREO_COUNT>
0

> <PUBCHEM_BOND_DEF_STEREO_COUNT>
0

> <PUBCHEM_BOND_UDEF_STEREO_COUNT>
0

> <PUBCHEM_ISOTOPIC_ATOM_COUNT>
0

> <PUBCHEM_COMPONENT_COUNT>
1

> <PUBCHEM_CACTVS_TAUTO_COUNT>
1

> <PUBCHEM_CONFORMER_ID>
041201F200000001

> <PUBCHEM_MMFF94_ENERGY>
50.0393

> <PUBCHEM_FEATURE_SELFOVERLAP>
46.036

> <PUBCHEM_SHAPE_FINGERPRINT>
107951 10 16883595133420952737
11513181 2 16758616335309930246
12156800 1 14027057430204420886
12506688 2 18272652346407232024
12553582 1 18335415807405214203
12712778 12 17832120755087569698
13402501 40 18265614479715415898
13533116 47 17915461808470160283
1361 2 17908975849212572407
13631057 29 18343026549989528326
138480 1 15095362392469273967
13941206 138 17183922271686757574
14251757 5 18122919633145528494
14863182 85 17469890342750848069
14866123 147 17982737368497733321
14931854 50 17690273816069568846
15420108 30 16537339650427225065
15422964 175 18339913926433061109
15635459 17 18265889331936815691
15664445 248 18189325943495814721
17492 54 17681849732183347220
17859628 97 17187006393191388633
17974551 9 17489595532677648377
1979834 28 17763743591597498195
20645477 70 17685761824777448207
20775438 99 17836880704264377183
20775530 9 18411985745202473102
21197605 99 15664794753153725331
21315764 371 16478805984943844579
23379529 103 18128829547021180558
23466295 7 18052558589780786010
23559900 14 18193830668747196157
3117164 225 18267043794193763987
3493558 16 13558524035277910070
3737641 26 18341630229729568714
5309563 4 18266742583077624935
6287921 2 17693104367179969587
66674814 147 16758831779221834503
6823239 73 18120088635410944649
9709674 26 18196924492440758228

> <PUBCHEM_SHAPE_MULTIPOLES>
490.24
7.73
5.59
1.38
0.57
0.49
0.75
7.47
-2.26
1.79
-0.22
-0.5
-0.44
2.42

> <PUBCHEM_SHAPE_SELFOVERLAP>
1102.233

> <PUBCHEM_SHAPE_VOLUME>
259.6

> <PUBCHEM_COORDINATE_TYPE>
2
5
10

$$$$
86280646
  -OEChem-11282412143D

 44 46  0     0  0  0  0  0  0999 V2000
   -1.7533   -0.9606   -2.3122 S   0  0  0  0  0  0  0  0  0  0  0  0
   -2.8579   -1.5899   -3.0115 O   0  0  0  0  0  0  0  0  0  0  0  0
   -0.7396   -0.2451   -3.0631 O   0  0  0  0  0  0  0  0  0  0  0  0
   -2.6524   -1.6228    1.6658 O   0  5  0  0  0  0  0  0  0  0  0  0
   -1.7013   -3.6008    1.7110 O   0  0  0  0  0  0  0  0  0  0  0  0
   -0.2526    3.3302    0.1488 O   0  0  0  0  0  0  0  0  0  0  0  0
   -1.8880    4.1306    1.5095 O   0  0  0  0  0  0  0  0  0  0  0  0
   -1.0145   -2.1213   -1.2782 N   0  0  0  0  0  0  0  0  0  0  0  0
   -1.6545   -2.3647    1.5095 N   0  3  0  0  0  0  0  0  0  0  0  0
    5.5774   -0.3395   -0.6991 N   0  0  0  0  0  0  0  0  0  0  0  0
   -0.1122   -1.6637   -0.2656 C   0  0  0  0  0  0  0  0  0  0  0  0
    1.9974   -0.6380    0.3135 C   0  0  0  0  0  0  0  0  0  0  0  0
    1.6839   -0.7579    1.6675 C   0  0  0  0  0  0  0  0  0  0  0  0
    1.0995   -1.0911   -0.6529 C   0  0  0  0  0  0  0  0  0  0  0  0
   -0.4257   -1.7836    1.0884 C   0  0  0  0  0  0  0  0  0  0  0  0
    0.4725   -1.3307    2.0549 C   0  0  0  0  0  0  0  0  0  0  0  0
   -2.4600    0.1693   -1.1472 C   0  0  0  0  0  0  0  0  0  0  0  0
    3.2497   -0.0474   -0.1149 C   0  0  0  0  0  0  0  0  0  0  0  0
    2.6212   -0.2828    2.7311 C   0  0  0  0  0  0  0  0  0  0  0  0
   -1.7162    1.2584   -0.6929 C   0  0  0  0  0  0  0  0  0  0  0  0
   -3.7600   -0.0301   -0.6822 C   0  0  0  0  0  0  0  0  0  0  0  0
   -2.2723    2.1479    0.2265 C   0  0  0  0  0  0  0  0  0  0  0  0
    3.3540    1.3187   -0.3518 C   0  0  0  0  0  0  0  0  0  0  0  0
    4.3804   -0.8262   -0.3015 C   0  0  0  0  0  0  0  0  0  0  0  0
   -4.3161    0.8597    0.2370 C   0  0  0  0  0  0  0  0  0  0  0  0
   -3.5722    1.9485    0.6915 C   0  0  0  0  0  0  0  0  0  0  0  0
    4.5688    1.8567   -0.7621 C   0  0  0  0  0  0  0  0  0  0  0  0
    5.6405    0.9928   -0.9196 C   0  0  0  0  0  0  0  0  0  0  0  0
   -1.4967    3.2834    0.6997 C   0  0  0  0  0  0  0  0  0  0  0  0
    1.3562   -1.0147   -1.7072 H   0  0  0  0  0  0  0  0  0  0  0  0
   -1.5963   -2.9276   -1.0171 H   0  0  0  0  0  0  0  0  0  0  0  0
    0.2247   -1.4252    3.1102 H   0  0  0  0  0  0  0  0  0  0  0  0
    2.2176   -0.4567    3.7349 H   0  0  0  0  0  0  0  0  0  0  0  0
    2.7973    0.7939    2.6401 H   0  0  0  0  0  0  0  0  0  0  0  0
    3.5756   -0.8163    2.6743 H   0  0  0  0  0  0  0  0  0  0  0  0
   -0.7068    1.3978   -1.0683 H   0  0  0  0  0  0  0  0  0  0  0  0
   -4.3543   -0.8757   -1.0162 H   0  0  0  0  0  0  0  0  0  0  0  0
    2.4984    1.9765   -0.2212 H   0  0  0  0  0  0  0  0  0  0  0  0
    4.3659   -1.8993   -0.1333 H   0  0  0  0  0  0  0  0  0  0  0  0
   -5.3273    0.7029    0.6009 H   0  0  0  0  0  0  0  0  0  0  0  0
   -4.0233    2.6296    1.4083 H   0  0  0  0  0  0  0  0  0  0  0  0
    4.6733    2.9187   -0.9526 H   0  0  0  0  0  0  0  0  0  0  0  0
    6.6097    1.3626   -1.2378 H   0  0  0  0  0  0  0  0  0  0  0  0
    0.2631    4.0981    0.4756 H   0  0  0  0  0  0  0  0  0  0  0  0
  1  2  2  0  0  0  0
  1  3  2  0  0  0  0
  1  8  1  0  0  0  0
  1 17  1  0  0  0  0
  4  9  1  0  0  0  0
  5  9  2  0  0  0  0
  6 29  1  0  0  0  0
  6 44  1  0  0  0  0
  7 29  2  0  0  0  0
  8 11  1  0  0  0  0
  8 31  1  0  0  0  0
  9 15  1  0  0  0  0
 10 24  1  0  0  0  0
 10 28  2  0  0  0  0
 11 14  1  0  0  0  0
 11 15  2  0  0  0  0
 12 13  1  0  0  0  0
 12 14  2  0  0  0  0
 12 18  1  0  0  0  0
 13 16  2  0  0  0  0
 13 19  1  0  0  0  0
 14 30  1  0  0  0  0
 15 16  1  0  0  0  0
 16 32  1  0  0  0  0
 17 20  1  0  0  0  0
 17 21  2  0  0  0  0
 18 23  1  0  0  0  0
 18 24  2  0  0  0  0
 19 33  1  0  0  0  0
 19 34  1  0  0  0  0
 19 35  1  0  0  0  0
 20 22  2  0  0  0  0
 20 36  1  0  0  0  0
 21 25  1  0  0  0  0
 21 37  1  0  0  0  0
 22 26  1  0  0  0  0
 22 29  1  0  0  0  0
 23 27  2  0  0  0  0
 23 38  1  0  0  0  0
 24 39  1  0  0  0  0
 25 26  2  0  0  0  0
 25 40  1  0  0  0  0
 26 41  1  0  0  0  0
 27 28  1  0  0  0  0
 27 42  1  0  0  0  0
 28 43  1  0  0  0  0
M  CHG  2   4  -1   9   1
M  END
> <PUBCHEM_COMPOUND_CID>
86280646

> <PUBCHEM_CONFORMER_RMSD>
0.8

> <PUBCHEM_CONFORMER_DIVERSEORDER>
1
29
87
46
35
75
10
89
93
61
67
33
58
63
88
44
79
96
66
18
49
53
77
92
50
36
72
64
59
73
55
7
24
69
48
2
54
94
76
85
15
65
51
45
97
34
16
20
62
70
5
13
95
74
41
78
98
27
25
9
12
3
83
14
17
68
6
28
81
52
90
42
19
8
84
86
4
23
80
38
32
26
37
91
82
56
11
43
30
31
57
60
47
40
21
71
22
39

> <PUBCHEM_MMFF94_PARTIAL_CHARGES>
39
1 1.45
10 -0.62
11 0.2
13 -0.14
14 -0.15
15 0.13
16 -0.15
17 -0.01
19 0.14
2 -0.65
20 -0.15
21 -0.15
22 0.09
23 -0.15
24 0.16
25 -0.15
26 -0.15
27 -0.15
28 0.16
29 0.63
3 -0.65
30 0.15
31 0.42
32 0.15
36 0.15
37 0.15
38 0.15
39 0.15
4 -0.52
40 0.15
41 0.15
42 0.15
43 0.15
44 0.5
5 -0.52
6 -0.65
7 -0.57
8 -0.76
9 0.91

> <PUBCHEM_EFFECTIVE_ROTOR_COUNT>
6

> <PUBCHEM_PHARMACOPHORE_FEATURES>
13
1 10 acceptor
1 2 acceptor
1 3 acceptor
1 4 acceptor
1 4 anion
1 5 acceptor
1 6 acceptor
1 7 acceptor
1 8 donor
3 6 7 29 anion
6 10 18 23 24 27 28 rings
6 11 12 13 14 15 16 rings
6 17 20 21 22 25 26 rings

> <PUBCHEM_HEAVY_ATOM_COUNT>
29

> <PUBCHEM_ATOM_DEF_STEREO_COUNT>
0

> <PUBCHEM_ATOM_UDEF_STEREO_COUNT>
0

> <PUBCHEM_BOND_DEF_STEREO_COUNT>
0

> <PUBCHEM_BOND_UDEF_STEREO_COUNT>
0

> <PUBCHEM_ISOTOPIC_ATOM_COUNT>
0

> <PUBCHEM_COMPONENT_COUNT>
1

> <PUBCHEM_CACTVS_TAUTO_COUNT>
10

> <PUBCHEM_CONFORMER_ID>
052489C600000001

> <PUBCHEM_MMFF94_ENERGY>
89.7752

> <PUBCHEM_FEATURE_SELFOVERLAP>
66.134

> <PUBCHEM_SHAPE_FINGERPRINT>
10291535 26 18339082691864381992
12156800 1 17545098918002097497
12788726 201 18411975828544954201
13782708 43 16056304124833341711
13994607 96 18409456903060523805
14251751 93 18198341762892343580
14279260 333 18265054635935810222
14341114 328 18335984156354300137
14713325 29 18337971055370050882
14787075 74 18335134319865445967
14955137 171 18058446672737897269
17492 54 18261382365334523433
19930381 70 16757461860641963436
20775438 99 16761655329250531679
21033650 10 18059031488391194588
21756936 100 18335137575081326040
22121540 332 16620459001159566089
23419403 2 17539963297089470095
3027735 51 12535083978726286284
35225 105 18040425582057653083
392239 28 18189355536131402809
469060 322 17773885387630363655
59755656 520 17821450162406634090
70251023 43 17692806412350538095

> <PUBCHEM_SHAPE_MULTIPOLES>
550.5
8.7
3.59
2.45
10.5
2.08
-0.5
3.5
-2.29
-2.9
1.74
-0.91
-1.34
-1.35

> <PUBCHEM_SHAPE_SELFOVERLAP>
1191.538

> <PUBCHEM_SHAPE_VOLUME>
302.1

> <PUBCHEM_COORDINATE_TYPE>
2
5
10

$$$$
91885617
  -OEChem-11282412143D

 58 61  0     1  0  0  0  0  0999 V2000
    3.5038   -2.7510   -0.3277 Cl  0  0  0  0  0  0  0  0  0  0  0  0
    4.0711    2.6687    0.0521 Cl  0  0  0  0  0  0  0  0  0  0  0  0
   -4.9591    3.1962   -0.0684 O   0  0  0  0  0  0  0  0  0  0  0  0
   -6.0675   -1.9939   -1.7349 O   0  0  0  0  0  0  0  0  0  0  0  0
    6.9581    1.9985    0.1099 O   0  0  0  0  0  0  0  0  0  0  0  0
    6.4656   -2.7047   -0.2190 O   0  0  0  0  0  0  0  0  0  0  0  0
   -3.6885    0.6805    0.7857 N   0  0  0  0  0  0  0  0  0  0  0  0
   -6.0776   -0.8353    0.2793 N   0  0  0  0  0  0  0  0  0  0  0  0
   -1.6564    0.5453   -0.3241 N   0  0  0  0  0  0  0  0  0  0  0  0
   -1.7877    0.3934    2.0772 N   0  0  0  0  0  0  0  0  0  0  0  0
   -5.8993    0.4851   -0.2751 C   0  0  2  0  0  0  0  0  0  0  0  0
   -4.4166    0.8432   -0.4610 C   0  0  1  0  0  0  0  0  0  0  0  0
   -6.6242    1.5433    0.5605 C   0  0  0  0  0  0  0  0  0  0  0  0
   -4.2757    2.2905   -0.9380 C   0  0  0  0  0  0  0  0  0  0  0  0
   -6.3595    2.9348    0.0012 C   0  0  0  0  0  0  0  0  0  0  0  0
   -2.3171    0.5341    0.8514 C   0  0  0  0  0  0  0  0  0  0  0  0
   -6.1465   -1.9710   -0.5109 C   0  0  0  0  0  0  0  0  0  0  0  0
   -0.3209    0.4004   -0.2681 C   0  0  0  0  0  0  0  0  0  0  0  0
    0.3488    0.2451    0.9566 C   0  0  0  0  0  0  0  0  0  0  0  0
   -6.3369   -3.2019    0.3017 C   0  0  0  0  0  0  0  0  0  0  0  0
   -0.4490    0.2505    2.0973 C   0  0  0  0  0  0  0  0  0  0  0  0
    1.7456    0.0945    1.0031 C   0  0  0  0  0  0  0  0  0  0  0  0
    2.4854    0.0978   -0.1752 C   0  0  0  0  0  0  0  0  0  0  0  0
    0.4441    0.4000   -1.4318 C   0  0  0  0  0  0  0  0  0  0  0  0
    1.8336    0.2507   -1.3939 C   0  0  0  0  0  0  0  0  0  0  0  0
    3.9229   -0.0556   -0.1337 C   0  0  0  0  0  0  0  0  0  0  0  0
   -6.4260   -4.3967   -0.2906 C   0  0  0  0  0  0  0  0  0  0  0  0
    4.4906   -1.3281   -0.1979 C   0  0  0  0  0  0  0  0  0  0  0  0
    4.7417    1.0691   -0.0304 C   0  0  0  0  0  0  0  0  0  0  0  0
    6.1282    0.9212    0.0087 C   0  0  0  0  0  0  0  0  0  0  0  0
    5.8772   -1.4760   -0.1589 C   0  0  0  0  0  0  0  0  0  0  0  0
    6.6960   -0.3514   -0.0552 C   0  0  0  0  0  0  0  0  0  0  0  0
    7.3963    2.5936   -1.1092 C   0  0  0  0  0  0  0  0  0  0  0  0
    6.6999   -3.3707    1.0196 C   0  0  0  0  0  0  0  0  0  0  0  0
   -6.3631    0.4846   -1.2715 H   0  0  0  0  0  0  0  0  0  0  0  0
   -3.9991    0.1662   -1.2177 H   0  0  0  0  0  0  0  0  0  0  0  0
   -6.2798    1.4993    1.6012 H   0  0  0  0  0  0  0  0  0  0  0  0
   -7.7022    1.3442    0.5766 H   0  0  0  0  0  0  0  0  0  0  0  0
   -3.2292    2.6079   -0.9791 H   0  0  0  0  0  0  0  0  0  0  0  0
   -4.6823    2.4022   -1.9508 H   0  0  0  0  0  0  0  0  0  0  0  0
   -6.8031    3.0557   -0.9941 H   0  0  0  0  0  0  0  0  0  0  0  0
   -6.8077    3.6895    0.6553 H   0  0  0  0  0  0  0  0  0  0  0  0
   -4.1904    0.6998    1.6654 H   0  0  0  0  0  0  0  0  0  0  0  0
   -6.1052   -0.9238    1.2912 H   0  0  0  0  0  0  0  0  0  0  0  0
   -6.4028   -3.1203    1.3811 H   0  0  0  0  0  0  0  0  0  0  0  0
   -0.0211    0.1368    3.0891 H   0  0  0  0  0  0  0  0  0  0  0  0
    2.2446   -0.0243    1.9635 H   0  0  0  0  0  0  0  0  0  0  0  0
   -0.0421    0.5183   -2.3983 H   0  0  0  0  0  0  0  0  0  0  0  0
    2.3890    0.2569   -2.3290 H   0  0  0  0  0  0  0  0  0  0  0  0
   -6.5649   -5.2902    0.3092 H   0  0  0  0  0  0  0  0  0  0  0  0
   -6.3651   -4.5218   -1.3659 H   0  0  0  0  0  0  0  0  0  0  0  0
    7.7768   -0.4667   -0.0244 H   0  0  0  0  0  0  0  0  0  0  0  0
    7.9644    3.4954   -0.8650 H   0  0  0  0  0  0  0  0  0  0  0  0
    6.5485    2.8755   -1.7412 H   0  0  0  0  0  0  0  0  0  0  0  0
    8.0518    1.9047   -1.6515 H   0  0  0  0  0  0  0  0  0  0  0  0
    7.0777   -4.3736    0.8027 H   0  0  0  0  0  0  0  0  0  0  0  0
    5.7778   -3.4632    1.6017 H   0  0  0  0  0  0  0  0  0  0  0  0
    7.4546   -2.8319    1.6012 H   0  0  0  0  0  0  0  0  0  0  0  0
  1 28  1  0  0  0  0
  2 29  1  0  0  0  0
  3 14  1  0  0  0  0
  3 15  1  0  0  0  0
  4 17  2  0  0  0  0
  5 30  1  0  0  0  0
  5 33  1  0  0  0  0
  6 31  1  0  0  0  0
  6 34  1  0  0  0  0
  7 12  1  0  0  0  0
  7 16  1  0  0  0  0
  7 43  1  0  0  0  0
  8 11  1  0  0  0  0
  8 17  1  0  0  0  0
  8 44  1  0  0  0  0
  9 16  1  0  0  0  0
  9 18  2  0  0  0  0
 10 16  2  0  0  0  0
 10 21  1  0  0  0  0
 11 12  1  0  0  0  0
 11 13  1  0  0  0  0
 11 35  1  0  0  0  0
 12 14  1  0  0  0  0
 12 36  1  0  0  0  0
 13 15  1  0  0  0  0
 13 37  1  0  0  0  0
 13 38  1  0  0  0  0
 14 39  1  0  0  0  0
 14 40  1  0  0  0  0
 15 41  1  0  0  0  0
 15 42  1  0  0  0  0
 17 20  1  0  0  0  0
 18 19  1  0  0  0  0
 18 24  1  0  0  0  0
 19 21  2  0  0  0  0
 19 22  1  0  0  0  0
 20 27  2  0  0  0  0
 20 45  1  0  0  0  0
 21 46  1  0  0  0  0
 22 23  2  0  0  0  0
 22 47  1  0  0  0  0
 23 25  1  0  0  0  0
 23 26  1  0  0  0  0
 24 25  2  0  0  0  0
 24 48  1  0  0  0  0
 25 49  1  0  0  0  0
 26 28  2  0  0  0  0
 26 29  1  0  0  0  0
 27 50  1  0  0  0  0
 27 51  1  0  0  0  0
 28 31  1  0  0  0  0
 29 30  2  0  0  0  0
 30 32  1  0  0  0  0
 31 32  2  0  0  0  0
 32 52  1  0  0  0  0
 33 53  1  0  0  0  0
 33 54  1  0  0  0  0
 33 55  1  0  0  0  0
 34 56  1  0  0  0  0
 34 57  1  0  0  0  0
 34 58  1  0  0  0  0
M  END
> <PUBCHEM_COMPOUND_CID>
91885617

> <PUBCHEM_CONFORMER_RMSD>
1

> <PUBCHEM_CONFORMER_DIVERSEORDER>
1
32
20
11
19
18
40
13
17
24
33
4
28
16
21
35
10
27
30
25
37
31
26
39
42
15
29
23
34
41
7
3
2
12
36
9
6
8
14
5
22
38

> <PUBCHEM_MMFF94_PARTIAL_CHARGES>
40
1 -0.18
10 -0.62
11 0.3
12 0.37
14 0.28
15 0.28
16 0.72
17 0.62
18 0.31
2 -0.18
20 -0.14
21 0.16
22 -0.15
24 -0.15
25 -0.15
27 -0.3
28 0.18
29 0.18
3 -0.56
30 0.08
31 0.08
32 -0.15
33 0.28
34 0.28
4 -0.57
43 0.4
44 0.37
45 0.15
46 0.15
47 0.15
48 0.15
49 0.15
5 -0.36
50 0.15
51 0.15
52 0.15
6 -0.36
7 -0.87
8 -0.73
9 -0.62

> <PUBCHEM_EFFECTIVE_ROTOR_COUNT>
9.2

> <PUBCHEM_PHARMACOPHORE_FEATURES>
13
1 27 hydrophobe
1 3 acceptor
1 4 acceptor
1 5 acceptor
1 6 acceptor
1 7 donor
1 8 donor
1 9 acceptor
4 7 9 10 16 cation
6 18 19 22 23 24 25 rings
6 26 28 29 30 31 32 rings
6 3 11 12 13 14 15 rings
6 9 10 16 18 19 21 rings

> <PUBCHEM_HEAVY_ATOM_COUNT>
34

> <PUBCHEM_ATOM_DEF_STEREO_COUNT>
2

> <PUBCHEM_ATOM_UDEF_STEREO_COUNT>
0

> <PUBCHEM_BOND_DEF_STEREO_COUNT>
0

> <PUBCHEM_BOND_UDEF_STEREO_COUNT>
0

> <PUBCHEM_ISOTOPIC_ATOM_COUNT>
0

> <PUBCHEM_COMPONENT_COUNT>
1

> <PUBCHEM_CACTVS_TAUTO_COUNT>
14

> <PUBCHEM_CONFORMER_ID>
057A103100000001

> <PUBCHEM_MMFF94_ENERGY>
122.6527

> <PUBCHEM_FEATURE_SELFOVERLAP>
66.007

> <PUBCHEM_SHAPE_FINGERPRINT>
117089 54 17903358453329105843
11719270 70 17632011945155422374
11796584 16 18270964527540020735
12082328 90 18412260645032140093
12106331 60 16415491445038876513
12236239 1 18272088279714931772
12645989 146 18335141951521379068
1361 4 18411699923935487615
13690498 29 18270955852243743799
13782708 43 18413669123406121523
14856354 85 16415484904589635381
14933364 13 18336548226714306965
15131766 46 18269550710791580036
15183329 4 18187642445338407235
15352257 5 18272932734910782083
15461852 350 18337962276419727956
1577012 14 18412827984183999660
19841028 212 18196369226928511658
21033648 29 18113899399192623488
21130935 74 18410011022772382346
21781051 124 17060348435425380038
23559900 14 17313401006561715972
23569943 247 17461432530122390474
24771293 8 17749111127768020180
335507 130 18335708281893487449
3383291 50 16878239631499358017
4073 2 18260554428404007067
4098825 35 18411136918131024041
4144715 1 18270971133041628941
439807 62 18343582975898676315
4625314 4 18340771438286481478
504579 68 18187915171888677167
5265222 85 18130222778070544999
6376802 90 18127136277976691765
6691757 9 16225767453707361584
68570916 9 18409730677008041380
77296 10 18411983563543131573
9831232 110 18198911306095714894

> <PUBCHEM_SHAPE_MULTIPOLES>
660.04
24.03
4.06
1.27
2.8
2.99
0.26
5.17
-2.78
3.27
-0.43
0.43
-0.02
-1.71

> <PUBCHEM_SHAPE_SELFOVERLAP>
1410.48

> <PUBCHEM_SHAPE_VOLUME>
365.8

> <PUBCHEM_COORDINATE_TYPE>
2
5
10

$$$$
124090478
  -OEChem-11282412143D

 56 60  0     1  0  0  0  0  0999 V2000
   -3.7074    0.3187   -0.2453 N   0  0  0  0  0  0  0  0  0  0  0  0
    0.0622    1.7082    0.4203 N   0  0  0  0  0  0  0  0  0  0  0  0
    1.7444    0.1337    0.1021 N   0  0  0  0  0  0  0  0  0  0  0  0
   -8.5209    0.3209   -0.8154 N   0  0  0  0  0  0  0  0  0  0  0  0
    4.5669    3.1765   -0.3585 N   0  0  0  0  0  0  0  0  0  0  0  0
    3.4751   -1.4654   -0.2250 N   0  0  0  0  0  0  0  0  0  0  0  0
    1.4815   -2.8330    0.1088 N   0  0  0  0  0  0  0  0  0  0  0  0
    1.3221   -4.1675    0.1192 N   0  0  0  0  0  0  0  0  0  0  0  0
   -2.7001   -0.6398   -0.7360 C   0  0  2  0  0  0  0  0  0  0  0  0
   -3.4181    0.3805    1.1993 C   0  0  1  0  0  0  0  0  0  0  0  0
   -2.6832   -1.7534    0.3167 C   0  0  0  0  0  0  0  0  0  0  0  0
   -3.1602   -1.0753    1.6029 C   0  0  0  0  0  0  0  0  0  0  0  0
   -1.3607    0.1238   -0.7866 C   0  0  0  0  0  0  0  0  0  0  0  0
   -2.1547    1.2521    1.3535 C   0  0  0  0  0  0  0  0  0  0  0  0
   -0.9477    0.6844    0.5858 C   0  0  0  0  0  0  0  0  0  0  0  0
   -5.0764   -0.1038   -0.5304 C   0  0  0  0  0  0  0  0  0  0  0  0
   -6.0439    1.0603   -0.3318 C   0  0  0  0  0  0  0  0  0  0  0  0
    1.3977    1.4353    0.1802 C   0  0  0  0  0  0  0  0  0  0  0  0
    2.2950    2.4962    0.0350 C   0  0  0  0  0  0  0  0  0  0  0  0
   -7.4276    0.6461   -0.6024 C   0  0  0  0  0  0  0  0  0  0  0  0
    3.6484    2.2030   -0.2085 C   0  0  0  0  0  0  0  0  0  0  0  0
    3.0479   -0.1172   -0.1320 C   0  0  0  0  0  0  0  0  0  0  0  0
    1.9039    3.8394    0.1216 C   0  0  0  0  0  0  0  0  0  0  0  0
    4.0148    0.8664   -0.2906 C   0  0  0  0  0  0  0  0  0  0  0  0
    2.8477    4.8441   -0.0326 C   0  0  0  0  0  0  0  0  0  0  0  0
    4.1541    4.4626   -0.2689 C   0  0  0  0  0  0  0  0  0  0  0  0
    2.7893   -2.6856   -0.1188 C   0  0  0  0  0  0  0  0  0  0  0  0
    3.4597   -3.9162   -0.2529 C   0  0  0  0  0  0  0  0  0  0  0  0
    2.4768   -4.8620   -0.0925 C   0  0  0  0  0  0  0  0  0  0  0  0
    2.5137   -6.3331   -0.1173 C   0  0  0  0  0  0  0  0  0  0  0  0
   -2.9236   -1.0241   -1.7375 H   0  0  0  0  0  0  0  0  0  0  0  0
   -4.2188    0.8263    1.7973 H   0  0  0  0  0  0  0  0  0  0  0  0
   -1.6956   -2.2101    0.4369 H   0  0  0  0  0  0  0  0  0  0  0  0
   -3.3853   -2.5505    0.0444 H   0  0  0  0  0  0  0  0  0  0  0  0
   -4.0845   -1.5535    1.9480 H   0  0  0  0  0  0  0  0  0  0  0  0
   -2.4241   -1.1672    2.4082 H   0  0  0  0  0  0  0  0  0  0  0  0
   -0.5780   -0.5427   -1.1690 H   0  0  0  0  0  0  0  0  0  0  0  0
   -1.4464    0.9418   -1.5158 H   0  0  0  0  0  0  0  0  0  0  0  0
   -2.3821    2.2684    1.0025 H   0  0  0  0  0  0  0  0  0  0  0  0
   -1.8954    1.3496    2.4155 H   0  0  0  0  0  0  0  0  0  0  0  0
   -0.5398   -0.1323    1.1960 H   0  0  0  0  0  0  0  0  0  0  0  0
   -5.1477   -0.4154   -1.5816 H   0  0  0  0  0  0  0  0  0  0  0  0
   -5.3895   -0.9709    0.0646 H   0  0  0  0  0  0  0  0  0  0  0  0
   -0.2920    2.5867    0.0585 H   0  0  0  0  0  0  0  0  0  0  0  0
   -5.9960    1.4486    0.6910 H   0  0  0  0  0  0  0  0  0  0  0  0
   -5.7757    1.8882   -0.9995 H   0  0  0  0  0  0  0  0  0  0  0  0
    0.8821    4.1468    0.3204 H   0  0  0  0  0  0  0  0  0  0  0  0
    5.0533    0.6040   -0.4779 H   0  0  0  0  0  0  0  0  0  0  0  0
    2.5708    5.8897    0.0331 H   0  0  0  0  0  0  0  0  0  0  0  0
    4.4766   -1.5303   -0.4027 H   0  0  0  0  0  0  0  0  0  0  0  0
    4.9349    5.2052   -0.3968 H   0  0  0  0  0  0  0  0  0  0  0  0
    4.5089   -4.0974   -0.4396 H   0  0  0  0  0  0  0  0  0  0  0  0
    0.3927   -4.5368    0.2774 H   0  0  0  0  0  0  0  0  0  0  0  0
    2.1758   -6.7457    0.8388 H   0  0  0  0  0  0  0  0  0  0  0  0
    1.8665   -6.7241   -0.9090 H   0  0  0  0  0  0  0  0  0  0  0  0
    3.5289   -6.6993   -0.3014 H   0  0  0  0  0  0  0  0  0  0  0  0
  1  9  1  0  0  0  0
  1 10  1  0  0  0  0
  1 16  1  0  0  0  0
  2 15  1  0  0  0  0
  2 18  1  0  0  0  0
  2 44  1  0  0  0  0
  3 18  1  0  0  0  0
  3 22  2  0  0  0  0
  4 20  3  0  0  0  0
  5 21  1  0  0  0  0
  5 26  2  0  0  0  0
  6 22  1  0  0  0  0
  6 27  1  0  0  0  0
  6 50  1  0  0  0  0
  7  8  1  0  0  0  0
  7 27  2  0  0  0  0
  8 29  1  0  0  0  0
  8 53  1  0  0  0  0
  9 11  1  0  0  0  0
  9 13  1  0  0  0  0
  9 31  1  0  0  0  0
 10 12  1  0  0  0  0
 10 14  1  0  0  0  0
 10 32  1  0  0  0  0
 11 12  1  0  0  0  0
 11 33  1  0  0  0  0
 11 34  1  0  0  0  0
 12 35  1  0  0  0  0
 12 36  1  0  0  0  0
 13 15  1  0  0  0  0
 13 37  1  0  0  0  0
 13 38  1  0  0  0  0
 14 15  1  0  0  0  0
 14 39  1  0  0  0  0
 14 40  1  0  0  0  0
 15 41  1  0  0  0  0
 16 17  1  0  0  0  0
 16 42  1  0  0  0  0
 16 43  1  0  0  0  0
 17 20  1  0  0  0  0
 17 45  1  0  0  0  0
 17 46  1  0  0  0  0
 18 19  2  0  0  0  0
 19 21  1  0  0  0  0
 19 23  1  0  0  0  0
 21 24  2  0  0  0  0
 22 24  1  0  0  0  0
 23 25  2  0  0  0  0
 23 47  1  0  0  0  0
 24 48  1  0  0  0  0
 25 26  1  0  0  0  0
 25 49  1  0  0  0  0
 26 51  1  0  0  0  0
 27 28  1  0  0  0  0
 28 29  2  0  0  0  0
 28 52  1  0  0  0  0
 29 30  1  0  0  0  0
 30 54  1  0  0  0  0
 30 55  1  0  0  0  0
 30 56  1  0  0  0  0
M  END
> <PUBCHEM_COMPOUND_CID>
124090478

> <PUBCHEM_CONFORMER_RMSD>
1.2

> <PUBCHEM_CONFORMER_DIVERSEORDER>
1
77
9
32
40
16
57
45
50
42
48
47
71
27
34
7
54
63
75
61
74
2
68
69
26
24
55
22
35
58
19
39
73
31
38
30
13
17
70
28
49
3
43
36
23
21
67
29
72
65
76
6
25
41
10
52
64
44
46
12
59
8
66
20
4
37
18
5
53
51
60
56
15
33
62
14
11

> <PUBCHEM_MMFF94_PARTIAL_CHARGES>
33
1 -0.81
10 0.27
15 0.37
16 0.27
17 0.2
18 0.41
2 -0.87
20 0.36
21 0.31
22 0.41
23 -0.15
24 -0.15
25 -0.15
26 0.16
27 0.37
28 -0.15
29 -0.33
3 -0.62
30 0.18
4 -0.56
44 0.4
47 0.15
48 0.15
49 0.15
5 -0.62
50 0.4
51 0.15
52 0.15
53 0.27
6 -0.58
7 -0.71
8 0.3
9 0.27

> <PUBCHEM_EFFECTIVE_ROTOR_COUNT>
7.2

> <PUBCHEM_PHARMACOPHORE_FEATURES>
13
1 1 cation
1 2 cation
1 2 donor
1 4 acceptor
1 5 acceptor
1 6 donor
1 8 donor
3 3 6 22 cation
3 6 7 27 cation
5 7 8 27 28 29 rings
6 3 18 19 21 22 24 rings
6 5 19 21 23 25 26 rings
8 1 9 10 11 12 13 14 15 rings

> <PUBCHEM_HEAVY_ATOM_COUNT>
30

> <PUBCHEM_ATOM_DEF_STEREO_COUNT>
2

> <PUBCHEM_ATOM_UDEF_STEREO_COUNT>
0

> <PUBCHEM_BOND_DEF_STEREO_COUNT>
0

> <PUBCHEM_BOND_UDEF_STEREO_COUNT>
0

> <PUBCHEM_ISOTOPIC_ATOM_COUNT>
0

> <PUBCHEM_COMPONENT_COUNT>
1

> <PUBCHEM_CACTVS_TAUTO_COUNT>
114

> <PUBCHEM_CONFORMER_ID>
0765786E00000001

> <PUBCHEM_MMFF94_ENERGY>
79.0478

> <PUBCHEM_FEATURE_SELFOVERLAP>
66.331

> <PUBCHEM_SHAPE_FINGERPRINT>
10411042 1 17978508637734477422
10675989 125 18410292506260153289
1100329 8 18267303313323608184
11014199 57 17690282612748412518
11135609 149 18051103944507733391
11607047 191 17271978129951495184
11719270 70 18411414047070284296
12107183 9 17838909131392798257
12553582 1 18050860918384665770
12788726 201 16964920424811361954
13533116 47 18342736283061684235
13773456 30 18337105790783436075
13785724 45 17910963443795994047
138480 1 18266465308858270578
14117953 113 18411134736830846316
14659021 117 17111830580599597394
14675020 138 18200016473820555016
14844126 61 16821939911798923154
14866123 147 16753251212307507146
15400415 2 18122626316981022645
15484559 13 18341338876887006876
15927050 60 18269272542549258191
16993438 75 17758116286264546354
17138139 8 17270018868332569759
19319366 153 18272087261591333404
19427546 62 18193555794871819732
20157964 124 18410855490895066141
20511986 3 17703496800935815909
20721686 124 18335413599792355154
21033648 29 18052248798037811569
21133410 58 18265883667629963239
23559900 14 18410009935770804929
23845131 108 18265050430376720266
25147074 1 17845662448127766513
255183 451 18057045692386220678
3103668 31 17184750736718968798
38695281 34 18266177425695480248
3882209 13 17830431913727289962
4015057 19 18263650554870050187
404807 14 17834117446997441739
4058900 60 18266754638903177020
4403749 210 17976820118744899184
5309563 4 18051132493266775326
6025842 7 18411135852783981860
653340 110 17044294732462724112
6695519 79 17981063108425123083
70251023 43 18265332798500549699
9777508 108 17548417463575797168

> <PUBCHEM_SHAPE_MULTIPOLES>
577.54
13.56
7.63
0.93
32.8
8.22
0.23
-5.53
-3.76
-17.27
-0.4
1
-0.04
0.14

> <PUBCHEM_SHAPE_SELFOVERLAP>
1259.256

> <PUBCHEM_SHAPE_VOLUME>
307.2

> <PUBCHEM_COORDINATE_TYPE>
2
5
10

$$$$
137535407
  -OEChem-11282412143D

 74 79  0     1  0  0  0  0  0999 V2000
    6.5315    0.4895   -0.1581 F   0  0  0  0  0  0  0  0  0  0  0  0
    3.0526    1.0692    0.0089 O   0  0  0  0  0  0  0  0  0  0  0  0
    5.0664   -3.6104   -0.1610 O   0  0  0  0  0  0  0  0  0  0  0  0
   -5.4062    1.4748   -1.6408 O   0  0  0  0  0  0  0  0  0  0  0  0
    6.9058    4.2765    1.0160 N   0  0  2  0  0  0  0  0  0  0  0  0
    4.3455   -0.8881   -0.0831 N   0  0  0  0  0  0  0  0  0  0  0  0
   -0.7619   -0.9968    0.1449 N   0  0  0  0  0  0  0  0  0  0  0  0
    0.5002   -4.9363    0.0209 N   0  0  0  0  0  0  0  0  0  0  0  0
   -1.2615   -3.2958    0.1282 N   0  0  0  0  0  0  0  0  0  0  0  0
   -8.5903    1.8492    0.9219 N   0  0  0  0  0  0  0  0  0  0  0  0
   -8.5252   -0.2464    1.6616 N   0  0  0  0  0  0  0  0  0  0  0  0
   -9.6055    1.7618    1.8174 N   0  0  0  0  0  0  0  0  0  0  0  0
    6.7416    3.3531   -0.1188 C   0  0  2  0  0  0  0  0  0  0  0  0
    6.8031    4.2637   -1.3551 C   0  0  0  0  0  0  0  0  0  0  0  0
    7.2448    5.6262   -0.8369 C   0  0  0  0  0  0  0  0  0  0  0  0
    7.7983    5.3364    0.5429 C   0  0  0  0  0  0  0  0  0  0  0  0
    5.4666    2.5719   -0.0749 C   0  0  0  0  0  0  0  0  0  0  0  0
    7.4335    3.6283    2.2119 C   0  0  0  0  0  0  0  0  0  0  0  0
    5.4090    1.2357   -0.0952 C   0  0  0  0  0  0  0  0  0  0  0  0
    4.1262    0.4811   -0.0497 C   0  0  0  0  0  0  0  0  0  0  0  0
    3.3738   -1.9174   -0.0565 C   0  0  0  0  0  0  0  0  0  0  0  0
    2.0239   -1.5871    0.0099 C   0  0  0  0  0  0  0  0  0  0  0  0
    3.7517   -3.2550   -0.0965 C   0  0  0  0  0  0  0  0  0  0  0  0
    1.0522   -2.6026    0.0361 C   0  0  0  0  0  0  0  0  0  0  0  0
    1.4213   -3.9570   -0.0037 C   0  0  0  0  0  0  0  0  0  0  0  0
    2.7793   -4.2590   -0.0700 C   0  0  0  0  0  0  0  0  0  0  0  0
   -0.3133   -2.3403    0.1019 C   0  0  0  0  0  0  0  0  0  0  0  0
   -1.9355   -0.3751   -0.3099 C   0  0  0  0  0  0  0  0  0  0  0  0
   -3.7739   -0.2646   -1.8738 C   0  0  0  0  0  0  0  0  0  0  0  0
   -2.6071   -0.8818   -1.4226 C   0  0  0  0  0  0  0  0  0  0  0  0
   -4.2687    0.8594   -1.2126 C   0  0  0  0  0  0  0  0  0  0  0  0
   -2.4305    0.7491    0.3512 C   0  0  0  0  0  0  0  0  0  0  0  0
    5.5730   -4.4107    0.9048 C   0  0  0  0  0  0  0  0  0  0  0  0
   -0.7909   -4.5526    0.0855 C   0  0  0  0  0  0  0  0  0  0  0  0
   -3.5970    1.3663   -0.1001 C   0  0  0  0  0  0  0  0  0  0  0  0
   -4.4791   -0.8199   -3.0668 C   0  0  0  0  0  0  0  0  0  0  0  0
   -6.4599    1.5519   -0.7749 C   0  0  0  0  0  0  0  0  0  0  0  0
    7.0464   -4.1147    1.0865 C   0  0  0  0  0  0  0  0  0  0  0  0
   -6.8439    0.4857   -0.0443 C   0  0  0  0  0  0  0  0  0  0  0  0
   -7.9477    0.6083    0.8471 C   0  0  0  0  0  0  0  0  0  0  0  0
   -7.1450    2.8297   -0.6773 C   0  0  0  0  0  0  0  0  0  0  0  0
   -8.1862    2.9482    0.1620 C   0  0  0  0  0  0  0  0  0  0  0  0
   -9.5176    0.4959    2.2230 C   0  0  0  0  0  0  0  0  0  0  0  0
    7.6052    2.6746   -0.1716 H   0  0  0  0  0  0  0  0  0  0  0  0
    5.8493    4.3530   -1.8878 H   0  0  0  0  0  0  0  0  0  0  0  0
    7.5427    3.8767   -2.0666 H   0  0  0  0  0  0  0  0  0  0  0  0
    7.9824    6.0988   -1.4925 H   0  0  0  0  0  0  0  0  0  0  0  0
    6.3771    6.2938   -0.7667 H   0  0  0  0  0  0  0  0  0  0  0  0
    7.7639    6.2221    1.1849 H   0  0  0  0  0  0  0  0  0  0  0  0
    8.8379    4.9924    0.4681 H   0  0  0  0  0  0  0  0  0  0  0  0
    4.5451    3.1480   -0.0210 H   0  0  0  0  0  0  0  0  0  0  0  0
    6.7445    2.8559    2.5699 H   0  0  0  0  0  0  0  0  0  0  0  0
    8.4107    3.1632    2.0385 H   0  0  0  0  0  0  0  0  0  0  0  0
    7.5400    4.3567    3.0233 H   0  0  0  0  0  0  0  0  0  0  0  0
    5.3091   -1.2138   -0.1317 H   0  0  0  0  0  0  0  0  0  0  0  0
    1.6853   -0.5637    0.0291 H   0  0  0  0  0  0  0  0  0  0  0  0
    3.0842   -5.3035   -0.1112 H   0  0  0  0  0  0  0  0  0  0  0  0
   -0.2397   -0.4285    0.8063 H   0  0  0  0  0  0  0  0  0  0  0  0
   -2.2207   -1.7491   -1.9523 H   0  0  0  0  0  0  0  0  0  0  0  0
   -1.9163    1.1554    1.2185 H   0  0  0  0  0  0  0  0  0  0  0  0
    5.0445   -4.1977    1.8424 H   0  0  0  0  0  0  0  0  0  0  0  0
    5.4351   -5.4679    0.6534 H   0  0  0  0  0  0  0  0  0  0  0  0
   -1.5279   -5.3461    0.1048 H   0  0  0  0  0  0  0  0  0  0  0  0
   -3.9626    2.2475    0.4207 H   0  0  0  0  0  0  0  0  0  0  0  0
   -5.4745   -1.1793   -2.7862 H   0  0  0  0  0  0  0  0  0  0  0  0
   -4.5797   -0.0530   -3.8420 H   0  0  0  0  0  0  0  0  0  0  0  0
   -3.9358   -1.6617   -3.5092 H   0  0  0  0  0  0  0  0  0  0  0  0
    7.5977   -4.3183    0.1625 H   0  0  0  0  0  0  0  0  0  0  0  0
    7.2001   -3.0562    1.3217 H   0  0  0  0  0  0  0  0  0  0  0  0
    7.4710   -4.7207    1.8917 H   0  0  0  0  0  0  0  0  0  0  0  0
   -6.3536   -0.4789   -0.1165 H   0  0  0  0  0  0  0  0  0  0  0  0
   -6.8063    3.6638   -1.2805 H   0  0  0  0  0  0  0  0  0  0  0  0
   -8.7411    3.8703    0.2839 H   0  0  0  0  0  0  0  0  0  0  0  0
  -10.2047    0.1010    2.9564 H   0  0  0  0  0  0  0  0  0  0  0  0
  1 19  1  0  0  0  0
  2 20  2  0  0  0  0
  3 23  1  0  0  0  0
  3 33  1  0  0  0  0
  4 31  1  0  0  0  0
  4 37  1  0  0  0  0
  5 13  1  0  0  0  0
  5 16  1  0  0  0  0
  5 18  1  0  0  0  0
  6 20  1  0  0  0  0
  6 21  1  0  0  0  0
  6 55  1  0  0  0  0
  7 27  1  0  0  0  0
  7 28  1  0  0  0  0
  7 58  1  0  0  0  0
  8 25  1  0  0  0  0
  8 34  2  0  0  0  0
  9 27  2  0  0  0  0
  9 34  1  0  0  0  0
 10 12  1  0  0  0  0
 10 40  1  0  0  0  0
 10 42  1  0  0  0  0
 11 40  2  0  0  0  0
 11 43  1  0  0  0  0
 12 43  2  0  0  0  0
 13 14  1  0  0  0  0
 13 17  1  0  0  0  0
 13 44  1  0  0  0  0
 14 15  1  0  0  0  0
 14 45  1  0  0  0  0
 14 46  1  0  0  0  0
 15 16  1  0  0  0  0
 15 47  1  0  0  0  0
 15 48  1  0  0  0  0
 16 49  1  0  0  0  0
 16 50  1  0  0  0  0
 17 19  2  0  0  0  0
 17 51  1  0  0  0  0
 18 52  1  0  0  0  0
 18 53  1  0  0  0  0
 18 54  1  0  0  0  0
 19 20  1  0  0  0  0
 21 22  1  0  0  0  0
 21 23  2  0  0  0  0
 22 24  2  0  0  0  0
 22 56  1  0  0  0  0
 23 26  1  0  0  0  0
 24 25  1  0  0  0  0
 24 27  1  0  0  0  0
 25 26  2  0  0  0  0
 26 57  1  0  0  0  0
 28 30  2  0  0  0  0
 28 32  1  0  0  0  0
 29 30  1  0  0  0  0
 29 31  2  0  0  0  0
 29 36  1  0  0  0  0
 30 59  1  0  0  0  0
 31 35  1  0  0  0  0
 32 35  2  0  0  0  0
 32 60  1  0  0  0  0
 33 38  1  0  0  0  0
 33 61  1  0  0  0  0
 33 62  1  0  0  0  0
 34 63  1  0  0  0  0
 35 64  1  0  0  0  0
 36 65  1  0  0  0  0
 36 66  1  0  0  0  0
 36 67  1  0  0  0  0
 37 39  2  0  0  0  0
 37 41  1  0  0  0  0
 38 68  1  0  0  0  0
 38 69  1  0  0  0  0
 38 70  1  0  0  0  0
 39 40  1  0  0  0  0
 39 71  1  0  0  0  0
 41 42  2  0  0  0  0
 41 72  1  0  0  0  0
 42 73  1  0  0  0  0
 43 74  1  0  0  0  0
M  END
> <PUBCHEM_COMPOUND_CID>
137535407

> <PUBCHEM_CONFORMER_RMSD>
1.2

> <PUBCHEM_CONFORMER_DIVERSEORDER>
1
6
32
58
56
3
67
79
64
48
75
66
20
41
81
76
52
73
31
15
80
28
39
7
77
63
61
35
62
82
50
34
43
60
70
65
57
40
30
37
68
49
45
18
24
21
17
16
46
33
69
27
78
25
42
36
59
29
22
13
55
54
5
38
44
47
51
53
72
71
8
4
19
11
2
9
23
12
74
14
26
10

> <PUBCHEM_MMFF94_PARTIAL_CHARGES>
52
1 -0.15
10 0.6
11 -0.57
12 -0.71
13 0.41
16 0.27
17 -0.29
18 0.27
19 0.16
2 -0.57
20 0.62
21 0.12
22 -0.15
23 0.08
25 0.31
26 -0.15
27 0.41
28 0.1
29 -0.14
3 -0.36
30 -0.15
31 0.08
32 -0.15
33 0.28
34 0.47
35 -0.15
36 0.14
37 0.08
39 -0.11
4 -0.16
40 0.14
41 -0.15
42 -0.18
43 0.37
5 -0.81
51 0.15
55 0.37
56 0.15
57 0.15
58 0.4
59 0.15
6 -0.55
60 0.15
63 0.15
64 0.15
7 -0.6
71 0.15
72 0.15
73 0.15
74 0.15
8 -0.62
9 -0.62

> <PUBCHEM_EFFECTIVE_ROTOR_COUNT>
11

> <PUBCHEM_PHARMACOPHORE_FEATURES>
16
1 2 acceptor
1 3 acceptor
1 4 acceptor
1 5 cation
1 6 donor
1 7 donor
3 10 11 40 cation
3 11 12 43 cation
3 7 9 27 cation
3 8 9 34 cation
5 10 11 12 40 43 rings
5 5 13 14 15 16 rings
6 10 37 39 40 41 42 rings
6 21 22 23 24 25 26 rings
6 28 29 30 31 32 35 rings
6 8 9 24 25 27 34 rings

> <PUBCHEM_HEAVY_ATOM_COUNT>
43

> <PUBCHEM_ATOM_DEF_STEREO_COUNT>
1

> <PUBCHEM_ATOM_UDEF_STEREO_COUNT>
0

> <PUBCHEM_BOND_DEF_STEREO_COUNT>
1

> <PUBCHEM_BOND_UDEF_STEREO_COUNT>
0

> <PUBCHEM_ISOTOPIC_ATOM_COUNT>
0

> <PUBCHEM_COMPONENT_COUNT>
1

> <PUBCHEM_CACTVS_TAUTO_COUNT>
-1

> <PUBCHEM_CONFORMER_ID>
08329FAF00000001

> <PUBCHEM_MMFF94_ENERGY>
141.9026

> <PUBCHEM_FEATURE_SELFOVERLAP>
84.208

> <PUBCHEM_SHAPE_FINGERPRINT>
10055352 69 18339651139270511841
10838868 160 18340763857827459593
11456790 92 18191860120340346906
11479125 193 18409730664233747097
12013929 112 13614252443394362001
12539765 74 18131075947764776956
13008946 62 18202289129541917974
131240 88 18410577327264580352
13560911 43 18117833301182456074
13726171 33 18263922323078052416
14340393 14 18335421321753339481
14937079 2 18338229346667367514
15419008 91 17677325014760880493
15439362 3 18409442597173203206
15448158 71 18264208196111836358
15685185 35 18268995456538506817
16126227 98 18338234985220663101
16664035 1 18193270785849499154
18393751 57 18187361047338740087
19053607 189 18267849748843381920
19302320 297 18337667508751890242
19304671 126 17988655116272823252
19309040 13 18271802467022005598
23522609 53 17846501379847350457
3178227 256 18266175028724596611
397830 11 18187088305111918255
44426701 194 18339658814129203193
4516262 110 18410845556962901741
474113 269 8502381010010489089
4760202 70 18271516586210513871

> <PUBCHEM_SHAPE_MULTIPOLES>
820.19
30.89
8.48
1.62
35.91
0.46
-0.23
-42.29
12.44
-26.02
0.94
2.92
-0.78
-1.47

> <PUBCHEM_SHAPE_SELFOVERLAP>
1799.848

> <PUBCHEM_SHAPE_VOLUME>
446.6

> <PUBCHEM_COORDINATE_TYPE>
2
5
10

$$$$
72704611
  -OEChem-11282412143D

 41 44  0     1  0  0  0  0  0999 V2000
    1.3472    0.3651   -0.2676 N   0  0  0  0  0  0  0  0  0  0  0  0
    1.0074    0.0339   -1.5250 N   0  0  0  0  0  0  0  0  0  0  0  0
   -2.4597    1.2093    1.3034 N   0  0  0  0  0  0  0  0  0  0  0  0
    2.3180    3.9867   -0.3348 N   0  0  0  0  0  0  0  0  0  0  0  0
   -5.3063   -1.1387   -0.3423 N   0  0  0  0  0  0  0  0  0  0  0  0
   -4.8009    0.5411    1.3120 N   0  0  0  0  0  0  0  0  0  0  0  0
    3.5721   -0.7851   -0.0697 C   0  0  0  0  0  0  0  0  0  0  0  0
    5.0105   -0.7224    0.4342 C   0  0  0  0  0  0  0  0  0  0  0  0
    2.9882   -1.9284    0.7542 C   0  0  0  0  0  0  0  0  0  0  0  0
    2.8195    0.5227    0.1030 C   0  0  1  0  0  0  0  0  0  0  0  0
    5.4105   -2.1856    0.5979 C   0  0  0  0  0  0  0  0  0  0  0  0
    4.1077   -2.9634    0.7919 C   0  0  0  0  0  0  0  0  0  0  0  0
    3.4994    1.6620   -0.6927 C   0  0  0  0  0  0  0  0  0  0  0  0
    0.2806    0.5289    0.5665 C   0  0  0  0  0  0  0  0  0  0  0  0
   -0.8345    0.2880   -0.1983 C   0  0  0  0  0  0  0  0  0  0  0  0
    2.8381    2.9617   -0.4929 C   0  0  0  0  0  0  0  0  0  0  0  0
   -0.3265   -0.0116   -1.4766 C   0  0  0  0  0  0  0  0  0  0  0  0
   -2.1755    0.3546    0.2934 C   0  0  0  0  0  0  0  0  0  0  0  0
   -3.1903   -0.4364   -0.2435 C   0  0  0  0  0  0  0  0  0  0  0  0
   -4.4556   -0.2873    0.3111 C   0  0  0  0  0  0  0  0  0  0  0  0
   -3.2993   -1.4144   -1.2650 C   0  0  0  0  0  0  0  0  0  0  0  0
   -4.6133   -1.8296   -1.3031 C   0  0  0  0  0  0  0  0  0  0  0  0
   -3.7374    1.2489    1.7441 C   0  0  0  0  0  0  0  0  0  0  0  0
    3.5782   -1.0823   -1.1281 H   0  0  0  0  0  0  0  0  0  0  0  0
    5.0661   -0.2135    1.4044 H   1  0  0  0  0  0  0  0  0  0  0  0
    5.6837   -0.2079   -0.2581 H   1  0  0  0  0  0  0  0  0  0  0  0
    2.0742   -2.3441    0.3188 H   1  0  0  0  0  0  0  0  0  0  0  0
    2.7570   -1.5996    1.7750 H   1  0  0  0  0  0  0  0  0  0  0  0
    2.7899    0.8016    1.1660 H   0  0  0  0  0  0  0  0  0  0  0  0
    5.9263   -2.5445   -0.3003 H   1  0  0  0  0  0  0  0  0  0  0  0
    6.0934   -2.3184    1.4431 H   1  0  0  0  0  0  0  0  0  0  0  0
    3.9846   -3.6877   -0.0217 H   1  0  0  0  0  0  0  0  0  0  0  0
    4.1027   -3.5228    1.7327 H   1  0  0  0  0  0  0  0  0  0  0  0
    3.5046    1.4229   -1.7631 H   0  0  0  0  0  0  0  0  0  0  0  0
    4.5448    1.7702   -0.3847 H   0  0  0  0  0  0  0  0  0  0  0  0
    0.4080    0.7946    1.6076 H   0  0  0  0  0  0  0  0  0  0  0  0
   -0.8568   -0.2447   -2.3884 H   0  0  0  0  0  0  0  0  0  0  0  0
   -2.5206   -1.8009   -1.9064 H   0  0  0  0  0  0  0  0  0  0  0  0
   -6.2921   -1.2423   -0.1457 H   0  0  0  0  0  0  0  0  0  0  0  0
   -5.1154   -2.5567   -1.9257 H   0  0  0  0  0  0  0  0  0  0  0  0
   -3.9320    1.9436    2.5540 H   0  0  0  0  0  0  0  0  0  0  0  0
  1  2  1  0  0  0  0
  1 10  1  0  0  0  0
  1 14  1  0  0  0  0
  2 17  2  0  0  0  0
  3 18  1  0  0  0  0
  3 23  2  0  0  0  0
  4 16  3  0  0  0  0
  5 20  1  0  0  0  0
  5 22  1  0  0  0  0
  5 39  1  0  0  0  0
  6 20  2  0  0  0  0
  6 23  1  0  0  0  0
  7  8  1  0  0  0  0
  7  9  1  0  0  0  0
  7 10  1  0  0  0  0
  7 24  1  0  0  0  0
  8 11  1  0  0  0  0
  8 25  1  0  0  0  0
  8 26  1  0  0  0  0
  9 12  1  0  0  0  0
  9 27  1  0  0  0  0
  9 28  1  0  0  0  0
 10 13  1  0  0  0  0
 10 29  1  0  0  0  0
 11 12  1  0  0  0  0
 11 30  1  0  0  0  0
 11 31  1  0  0  0  0
 12 32  1  0  0  0  0
 12 33  1  0  0  0  0
 13 16  1  0  0  0  0
 13 34  1  0  0  0  0
 13 35  1  0  0  0  0
 14 15  2  0  0  0  0
 14 36  1  0  0  0  0
 15 17  1  0  0  0  0
 15 18  1  0  0  0  0
 17 37  1  0  0  0  0
 18 19  2  0  0  0  0
 19 20  1  0  0  0  0
 19 21  1  0  0  0  0
 21 22  2  0  0  0  0
 21 38  1  0  0  0  0
 22 40  1  0  0  0  0
 23 41  1  0  0  0  0
M  ISO  8  25   2  26   2  27   2  28   2  30   2  31   2  32   2  33   2
M  END
> <PUBCHEM_COMPOUND_CID>
72704611

> <PUBCHEM_CONFORMER_RMSD>
0.8

> <PUBCHEM_CONFORMER_DIVERSEORDER>
1
52
68
64
76
77
99
19
103
57
45
38
115
119
83
84
71
2
14
30
17
105
62
66
59
16
109
67
48
98
26
34
79
116
53
4
70
104
73
15
8
28
74
50
40
56
65
18
72
39
112
3
44
32
33
93
20
12
95
88
86
9
110
94
7
13
27
114
24
61
97
106
22
118
43
10
82
35
23
108
21
42
11
6
111
78
58
92
85
46
107
36
81
55
41
101
113
102
117
91
29
5
37
100
49
96
75
89
90
60
80
63
25
54
31
47
51
69
87

> <PUBCHEM_MMFF94_PARTIAL_CHARGES>
23
1 0.31
10 0.26
13 0.2
14 -0.3
15 -0.05
16 0.36
17 0.14
18 0.36
2 -0.71
20 0.11
21 -0.15
22 -0.3
23 0.47
3 -0.62
36 0.15
37 0.15
38 0.15
39 0.27
4 -0.56
40 0.15
41 0.15
5 0.03
6 -0.57

> <PUBCHEM_EFFECTIVE_ROTOR_COUNT>
5

> <PUBCHEM_PHARMACOPHORE_FEATURES>
9
1 2 acceptor
1 4 acceptor
1 5 donor
3 3 6 23 cation
3 5 6 20 cation
5 1 2 14 15 17 rings
5 5 19 20 21 22 rings
5 7 8 9 11 12 rings
6 3 6 18 19 20 23 rings

> <PUBCHEM_HEAVY_ATOM_COUNT>
23

> <PUBCHEM_ATOM_DEF_STEREO_COUNT>
1

> <PUBCHEM_ATOM_UDEF_STEREO_COUNT>
0

> <PUBCHEM_BOND_DEF_STEREO_COUNT>
0

> <PUBCHEM_BOND_UDEF_STEREO_COUNT>
0

> <PUBCHEM_ISOTOPIC_ATOM_COUNT>
8

> <PUBCHEM_COMPONENT_COUNT>
1

> <PUBCHEM_CACTVS_TAUTO_COUNT>
3

> <PUBCHEM_CONFORMER_ID>
0455626300000001

> <PUBCHEM_MMFF94_ENERGY>
38.4011

> <PUBCHEM_FEATURE_SELFOVERLAP>
45.949

> <PUBCHEM_SHAPE_FINGERPRINT>
10319926 262 17131275645078117694
10366900 7 18113909294454030932
10912923 1 18272939357660103625
12107183 9 18124601885888234961
12236239 1 18343301461517738602
12596602 18 17846492622045375482
12616971 3 18411989057070112193
12633257 1 18271813375953658023
12670546 56 18272365386435556921
12788726 201 17774451597959425163
12839892 36 17704351048318952111
13009979 54 18059582347595043840
13167823 11 18413671322518937207
13533116 47 18335139834160407123
13544653 18 18041000579542097286
13583140 156 18262528124864044697
13911852 28 18118679925220518594
13955234 65 18264204880370846496
14178342 30 17845662425914366847
14386348 63 16443070477886909858
14739800 52 17559102388593916488
14849402 71 18271238448239256552
15142526 21 17764305441966074888
15250474 111 18272082846539708855
15788980 27 18259984851421347879
17349148 13 18060137643557872007
17818456 19 17916033347408627617
17857418 61 18413101749557257323
17870717 6 15140966123743908595
1813 80 18264216828917025694
18681886 176 17417822798219828396
19377110 9 18129948995506556801
20645477 70 17822005428357601274
21033648 29 17168133589902342909
21065198 48 18343865523783170096
21728266 224 17988915678816242887
2255824 54 18410015481190931268
23366157 5 17984975162223282201
23557571 272 16486711185389119217
23559900 14 18262232343425046416
25147074 1 18201726179978444257
3004659 81 18131358522058000861
312423 11 18343026622260219029
314194 84 18186804634832510722
345986 75 18117548532060463480
3633792 109 18263626464393140767
3737641 26 17975977566710846786
474 4 18047474705648976548
5104073 3 17988648536160996571
5312544 6 18267866270996656196
573450 72 18059856147459817499
67856867 119 18271522104056766840
6823239 73 15285648719722281780
7970288 3 18192142703788287426
9981440 41 17617091847128695896

> <PUBCHEM_SHAPE_MULTIPOLES>
443.44
12.31
3.02
1.34
2.76
1.8
-0.02
-6.46
-1.99
-4.46
0.11
1.24
0.01
-2.88

> <PUBCHEM_SHAPE_SELFOVERLAP>
970.074

> <PUBCHEM_SHAPE_VOLUME>
238.1

> <PUBCHEM_COORDINATE_TYPE>
2
5
10

$$$$
72202701
  -OEChem-11282412143D

 46 51  0     0  0  0  0  0  0999 V2000
   -0.6363    0.9846    2.2424 F   0  0  0  0  0  0  0  0  0  0  0  0
   -2.5148    2.0283    2.2819 F   0  0  0  0  0  0  0  0  0  0  0  0
   -4.3863    1.4104    0.8389 F   0  0  0  0  0  0  0  0  0  0  0  0
    4.5202   -1.0684    0.4162 N   0  0  0  0  0  0  0  0  0  0  0  0
    5.3343   -0.4435   -0.4515 N   0  0  0  0  0  0  0  0  0  0  0  0
    0.1166    2.2913   -0.1586 N   0  0  0  0  0  0  0  0  0  0  0  0
    1.0716    1.3717    0.1277 N   0  0  0  0  0  0  0  0  0  0  0  0
   -1.7824    3.3856   -0.1482 N   0  0  0  0  0  0  0  0  0  0  0  0
   -2.9337   -3.7669   -1.0493 N   0  0  0  0  0  0  0  0  0  0  0  0
   -0.9339    4.0045   -1.0439 N   0  0  0  0  0  0  0  0  0  0  0  0
   -4.0725   -3.0492   -0.9906 N   0  0  0  0  0  0  0  0  0  0  0  0
    4.9420   -2.2989    1.1837 C   0  0  0  0  0  0  0  0  0  0  0  0
    5.4574   -3.5141    0.4487 C   0  0  0  0  0  0  0  0  0  0  0  0
    4.1160   -3.5617    1.1106 C   0  0  0  0  0  0  0  0  0  0  0  0
    3.2909   -0.4891    0.5337 C   0  0  0  0  0  0  0  0  0  0  0  0
    3.3016    0.5898   -0.3164 C   0  0  0  0  0  0  0  0  0  0  0  0
    4.5844    0.5686   -0.8957 C   0  0  0  0  0  0  0  0  0  0  0  0
    2.1791    1.5385   -0.5379 C   0  0  0  0  0  0  0  0  0  0  0  0
   -1.6637    1.3801    1.4113 C   0  0  0  0  0  0  0  0  0  0  0  0
    2.4210    2.6463   -1.5180 C   0  0  0  0  0  0  0  0  0  0  0  0
   -1.1383    2.3653    0.3717 C   0  0  0  0  0  0  0  0  0  0  0  0
   -2.3314    0.2025    0.7684 C   0  0  0  0  0  0  0  0  0  0  0  0
    0.2029    3.3412   -1.0433 C   0  0  0  0  0  0  0  0  0  0  0  0
    1.4184    3.5069   -1.7360 C   0  0  0  0  0  0  0  0  0  0  0  0
   -2.2998   -1.9209   -0.1279 C   0  0  0  0  0  0  0  0  0  0  0  0
   -1.5377   -0.9205    0.4622 C   0  0  0  0  0  0  0  0  0  0  0  0
   -3.7133   -1.8864   -0.4186 C   0  0  0  0  0  0  0  0  0  0  0  0
   -3.7343    0.2855    0.5005 C   0  0  0  0  0  0  0  0  0  0  0  0
   -4.4811   -0.7508   -0.1017 C   0  0  0  0  0  0  0  0  0  0  0  0
   -1.8346   -3.1360   -0.5439 C   0  0  0  0  0  0  0  0  0  0  0  0
   -2.9623   -5.0945   -1.6163 C   0  0  0  0  0  0  0  0  0  0  0  0
    5.4044   -2.0565    2.1340 H   0  0  0  0  0  0  0  0  0  0  0  0
    6.2662   -4.0714    0.9053 H   0  0  0  0  0  0  0  0  0  0  0  0
    5.4825   -3.4948   -0.6340 H   0  0  0  0  0  0  0  0  0  0  0  0
    4.0191   -4.1508    2.0145 H   0  0  0  0  0  0  0  0  0  0  0  0
    3.2423   -3.5787    0.4706 H   0  0  0  0  0  0  0  0  0  0  0  0
    2.5332   -0.8844    1.1972 H   0  0  0  0  0  0  0  0  0  0  0  0
    5.0207    1.2381   -1.6227 H   0  0  0  0  0  0  0  0  0  0  0  0
    3.3655    2.7488   -2.0343 H   0  0  0  0  0  0  0  0  0  0  0  0
    1.5314    4.3273   -2.4354 H   0  0  0  0  0  0  0  0  0  0  0  0
   -0.4784   -0.9897    0.6658 H   0  0  0  0  0  0  0  0  0  0  0  0
   -5.5422   -0.6673   -0.2954 H   0  0  0  0  0  0  0  0  0  0  0  0
   -0.8557   -3.5965   -0.5280 H   0  0  0  0  0  0  0  0  0  0  0  0
   -3.6517   -5.7048   -1.0275 H   0  0  0  0  0  0  0  0  0  0  0  0
   -3.3033   -5.0186   -2.6518 H   0  0  0  0  0  0  0  0  0  0  0  0
   -1.9597   -5.5278   -1.5843 H   0  0  0  0  0  0  0  0  0  0  0  0
  1 19  1  0  0  0  0
  2 19  1  0  0  0  0
  3 28  1  0  0  0  0
  4  5  1  0  0  0  0
  4 12  1  0  0  0  0
  4 15  1  0  0  0  0
  5 17  2  0  0  0  0
  6  7  1  0  0  0  0
  6 21  1  0  0  0  0
  6 23  1  0  0  0  0
  7 18  2  0  0  0  0
  8 10  1  0  0  0  0
  8 21  2  0  0  0  0
  9 11  1  0  0  0  0
  9 30  1  0  0  0  0
  9 31  1  0  0  0  0
 10 23  2  0  0  0  0
 11 27  2  0  0  0  0
 12 13  1  0  0  0  0
 12 14  1  0  0  0  0
 12 32  1  0  0  0  0
 13 14  1  0  0  0  0
 13 33  1  0  0  0  0
 13 34  1  0  0  0  0
 14 35  1  0  0  0  0
 14 36  1  0  0  0  0
 15 16  2  0  0  0  0
 15 37  1  0  0  0  0
 16 17  1  0  0  0  0
 16 18  1  0  0  0  0
 17 38  1  0  0  0  0
 18 20  1  0  0  0  0
 19 21  1  0  0  0  0
 19 22  1  0  0  0  0
 20 24  2  0  0  0  0
 20 39  1  0  0  0  0
 22 26  2  0  0  0  0
 22 28  1  0  0  0  0
 23 24  1  0  0  0  0
 24 40  1  0  0  0  0
 25 26  1  0  0  0  0
 25 27  1  0  0  0  0
 25 30  2  0  0  0  0
 26 41  1  0  0  0  0
 27 29  1  0  0  0  0
 28 29  2  0  0  0  0
 29 42  1  0  0  0  0
 30 43  1  0  0  0  0
 31 44  1  0  0  0  0
 31 45  1  0  0  0  0
 31 46  1  0  0  0  0
M  END
> <PUBCHEM_COMPOUND_CID>
72202701

> <PUBCHEM_CONFORMER_RMSD>
0.8

> <PUBCHEM_CONFORMER_DIVERSEORDER>
1
130
81
27
119
33
92
117
95
30
103
20
126
22
93
31
8
25
58
125
42
35
110
108
89
107
65
124
106
136
77
134
122
104
131
127
18
57
120
15
118
91
128
132
67
59
78
68
63
29
43
100
14
98
44
45
36
135
56
96
38
2
48
102
52
129
109
72
70
19
101
90
39
123
82
133
37
28
75
114
34
87
84
32
83
113
97
76
85
40
86
26
49
4
41
6
12
66
112
111
116
5
13
53
105
88
54
80
121
23
24
74
73
61
47
46
16
10
79
7
94
71
69
62
115
64
11
3
60
51
50
99
17
9
21
55

> <PUBCHEM_MMFF94_PARTIAL_CHARGES>
42
1 -0.34
10 -0.34
11 -0.71
12 -0.09
13 -0.2
14 -0.2
15 -0.3
16 -0.09
17 0.14
18 0.52
19 1
2 -0.34
20 -0.14
21 0.01
22 -0.14
23 0.14
24 -0.11
26 -0.15
27 0.29
28 0.19
29 -0.15
3 -0.19
30 -0.3
31 0.26
32 0.1
33 0.1
34 0.1
35 0.1
36 0.1
37 0.15
38 0.15
39 0.15
4 0.56
40 0.15
41 0.15
42 0.15
43 0.15
5 -0.71
6 0.51
7 -0.65
8 -0.34
9 0.31

> <PUBCHEM_EFFECTIVE_ROTOR_COUNT>
4.6

> <PUBCHEM_PHARMACOPHORE_FEATURES>
10
1 11 acceptor
1 5 acceptor
1 7 acceptor
3 6 10 23 cation
3 6 8 21 cation
5 4 5 15 16 17 rings
5 6 8 10 21 23 rings
5 9 11 25 27 30 rings
6 22 25 26 27 28 29 rings
6 6 7 18 20 23 24 rings

> <PUBCHEM_HEAVY_ATOM_COUNT>
31

> <PUBCHEM_ATOM_DEF_STEREO_COUNT>
0

> <PUBCHEM_ATOM_UDEF_STEREO_COUNT>
0

> <PUBCHEM_BOND_DEF_STEREO_COUNT>
0

> <PUBCHEM_BOND_UDEF_STEREO_COUNT>
0

> <PUBCHEM_ISOTOPIC_ATOM_COUNT>
0

> <PUBCHEM_COMPONENT_COUNT>
1

> <PUBCHEM_CACTVS_TAUTO_COUNT>
1

> <PUBCHEM_CONFORMER_ID>
044DB9CD00000001

> <PUBCHEM_MMFF94_ENERGY>
59.995

> <PUBCHEM_FEATURE_SELFOVERLAP>
53.496

> <PUBCHEM_SHAPE_FINGERPRINT>
10462674 125 16551095447408371238
10483366 6 18047168797220140797
10622 236 18340761658351277039
10928967 22 18265350447054295430
11014199 57 18409164428926542034
114674 6 16471490998476962299
11552529 35 18341895143855854608
11578080 2 18272362131141692689
12422481 6 17832732096305354153
13004483 165 18335132055853308312
14100547 121 18268711597922765074
14114206 34 16444196284006020344
14117953 113 18122906430436477797
14395042 24 18412822491712489563
14480069 147 17973732668650987571
14910302 57 18269818849313529472
15250474 111 18410292506597555202
15721738 15 17545571897308222143
15968369 26 17113504552187395491
19319366 153 17186998134153888902
20621476 51 18410569548940994210
20626108 58 18126563659260485557
20764821 26 18049172063949568174
20775530 9 18198340860711750271
21049683 118 15621200779443078969
21344244 181 17975664257135592325
229767 44 18268429018860254883
23559900 14 17988081213398643936
397830 11 18198038324513243642
4017518 198 17692244145528661982
437795 96 16752394692924666730
4573279 73 18188505614450357446
463206 1 18263932213854802665
4756261 7 17117440787256353400
484985 159 17972863788171498798
563151 97 17830468523644016404
56633871 153 18410577240942825259
6438754 60 18265889357580025251

> <PUBCHEM_SHAPE_MULTIPOLES>
576.3
10.6
6.5
1.54
8.83
2.88
-0.27
11.21
-0.5
-1.03
2.81
-0.4
-0.32
-4.48

> <PUBCHEM_SHAPE_SELFOVERLAP>
1295.883

> <PUBCHEM_SHAPE_VOLUME>
307.4

> <PUBCHEM_COORDINATE_TYPE>
2
5
10

$$$$
134611548
  -OEChem-11282412143D

 58 61  0     0  0  0  0  0  0999 V2000
    0.9898   -3.2930    0.5476 O   0  0  0  0  0  0  0  0  0  0  0  0
    2.9419   -2.7709   -1.7393 O   0  0  0  0  0  0  0  0  0  0  0  0
   -1.3574   -0.0254    0.5031 N   0  0  0  0  0  0  0  0  0  0  0  0
   -1.6784   -2.1496    1.1500 N   0  0  0  0  0  0  0  0  0  0  0  0
   -5.0842   -1.5211   -0.3329 N   0  0  0  0  0  0  0  0  0  0  0  0
   -5.5528    0.6873   -1.3014 N   0  0  0  0  0  0  0  0  0  0  0  0
    2.7927   -1.9138    1.0339 N   0  0  0  0  0  0  0  0  0  0  0  0
    4.8829    4.1527   -0.4719 N   0  0  0  0  0  0  0  0  0  0  0  0
   -0.6298    1.2906    0.2965 C   0  0  0  0  0  0  0  0  0  0  0  0
    1.7075    3.1125    0.5024 C   0  0  0  0  0  0  0  0  0  0  0  0
   -0.2362    1.9426    1.6325 C   0  0  0  0  0  0  0  0  0  0  0  0
    0.5958    1.1296   -0.6182 C   0  0  0  0  0  0  0  0  0  0  0  0
    0.4847    3.2728    1.4151 C   0  0  0  0  0  0  0  0  0  0  0  0
    1.3143    2.4618   -0.8302 C   0  0  0  0  0  0  0  0  0  0  0  0
    2.3825    4.4621    0.2646 C   0  0  0  0  0  0  0  0  0  0  0  0
   -2.6048   -0.3716    0.1675 C   0  0  0  0  0  0  0  0  0  0  0  0
   -0.8217   -1.1428    1.1033 C   0  0  0  0  0  0  0  0  0  0  0  0
   -2.8213   -1.6713    0.5560 C   0  0  0  0  0  0  0  0  0  0  0  0
   -3.5687    0.3488   -0.4478 C   0  0  0  0  0  0  0  0  0  0  0  0
    0.5624   -1.1660    1.6223 C   0  0  0  0  0  0  0  0  0  0  0  0
   -4.7785   -0.2541   -0.6768 C   0  0  0  0  0  0  0  0  0  0  0  0
    3.7772    4.2848   -0.1456 C   0  0  0  0  0  0  0  0  0  0  0  0
   -4.0844   -2.2270    0.2902 C   0  0  0  0  0  0  0  0  0  0  0  0
   -3.5559    1.6725   -0.9202 C   0  0  0  0  0  0  0  0  0  0  0  0
    1.4464   -2.2489    1.0060 C   0  0  0  0  0  0  0  0  0  0  0  0
   -4.8218    1.8542   -1.4524 C   0  0  0  0  0  0  0  0  0  0  0  0
    3.8218   -2.7824    0.5124 C   0  0  0  0  0  0  0  0  0  0  0  0
    4.1247   -2.5328   -0.9725 C   0  0  0  0  0  0  0  0  0  0  0  0
    4.5695   -1.0934   -1.2377 C   0  0  0  0  0  0  0  0  0  0  0  0
    5.2017   -3.5080   -1.4565 C   0  0  0  0  0  0  0  0  0  0  0  0
   -1.2960    1.9709   -0.1964 H   0  0  0  0  0  0  0  0  0  0  0  0
    2.4113    2.4408    1.0156 H   0  0  0  0  0  0  0  0  0  0  0  0
    0.3756    1.3303    2.2925 H   0  0  0  0  0  0  0  0  0  0  0  0
   -1.1525    2.1377    2.2061 H   0  0  0  0  0  0  0  0  0  0  0  0
    0.2627    0.7517   -1.5938 H   0  0  0  0  0  0  0  0  0  0  0  0
    1.3282    0.4042   -0.2669 H   0  0  0  0  0  0  0  0  0  0  0  0
   -0.2151    3.9954    0.9755 H   0  0  0  0  0  0  0  0  0  0  0  0
    0.7888    3.6795    2.3871 H   0  0  0  0  0  0  0  0  0  0  0  0
    2.2018    2.2908   -1.4510 H   0  0  0  0  0  0  0  0  0  0  0  0
    0.6580    3.1351   -1.3968 H   0  0  0  0  0  0  0  0  0  0  0  0
    2.3763    5.0504    1.1906 H   0  0  0  0  0  0  0  0  0  0  0  0
    1.8354    5.0494   -0.4818 H   0  0  0  0  0  0  0  0  0  0  0  0
    1.1152   -0.2382    1.5779 H   0  0  0  0  0  0  0  0  0  0  0  0
    0.5052   -1.4087    2.6926 H   0  0  0  0  0  0  0  0  0  0  0  0
   -4.3352   -3.2457    0.5647 H   0  0  0  0  0  0  0  0  0  0  0  0
   -2.8359    2.4689   -0.9414 H   0  0  0  0  0  0  0  0  0  0  0  0
   -6.5074    0.5562   -1.6062 H   0  0  0  0  0  0  0  0  0  0  0  0
   -5.2763    2.7116   -1.9289 H   0  0  0  0  0  0  0  0  0  0  0  0
    3.0831   -1.0279    1.4370 H   0  0  0  0  0  0  0  0  0  0  0  0
    3.4938   -3.8184    0.6589 H   0  0  0  0  0  0  0  0  0  0  0  0
    4.7170   -2.6211    1.1232 H   0  0  0  0  0  0  0  0  0  0  0  0
    5.4555   -0.8320   -0.6500 H   0  0  0  0  0  0  0  0  0  0  0  0
    4.8045   -0.9453   -2.2981 H   0  0  0  0  0  0  0  0  0  0  0  0
    3.7720   -0.3798   -1.0027 H   0  0  0  0  0  0  0  0  0  0  0  0
    6.1401   -3.3768   -0.9079 H   0  0  0  0  0  0  0  0  0  0  0  0
    5.4037   -3.3730   -2.5253 H   0  0  0  0  0  0  0  0  0  0  0  0
    4.8695   -4.5454   -1.3346 H   0  0  0  0  0  0  0  0  0  0  0  0
    3.1536   -2.6209   -2.6765 H   0  0  0  0  0  0  0  0  0  0  0  0
  1 25  2  0  0  0  0
  2 28  1  0  0  0  0
  2 58  1  0  0  0  0
  3  9  1  0  0  0  0
  3 16  1  0  0  0  0
  3 17  1  0  0  0  0
  4 17  2  0  0  0  0
  4 18  1  0  0  0  0
  5 21  2  0  0  0  0
  5 23  1  0  0  0  0
  6 21  1  0  0  0  0
  6 26  1  0  0  0  0
  6 47  1  0  0  0  0
  7 25  1  0  0  0  0
  7 27  1  0  0  0  0
  7 49  1  0  0  0  0
  8 22  3  0  0  0  0
  9 11  1  0  0  0  0
  9 12  1  0  0  0  0
  9 31  1  0  0  0  0
 10 13  1  0  0  0  0
 10 14  1  0  0  0  0
 10 15  1  0  0  0  0
 10 32  1  0  0  0  0
 11 13  1  0  0  0  0
 11 33  1  0  0  0  0
 11 34  1  0  0  0  0
 12 14  1  0  0  0  0
 12 35  1  0  0  0  0
 12 36  1  0  0  0  0
 13 37  1  0  0  0  0
 13 38  1  0  0  0  0
 14 39  1  0  0  0  0
 14 40  1  0  0  0  0
 15 22  1  0  0  0  0
 15 41  1  0  0  0  0
 15 42  1  0  0  0  0
 16 18  1  0  0  0  0
 16 19  2  0  0  0  0
 17 20  1  0  0  0  0
 18 23  2  0  0  0  0
 19 21  1  0  0  0  0
 19 24  1  0  0  0  0
 20 25  1  0  0  0  0
 20 43  1  0  0  0  0
 20 44  1  0  0  0  0
 23 45  1  0  0  0  0
 24 26  2  0  0  0  0
 24 46  1  0  0  0  0
 26 48  1  0  0  0  0
 27 28  1  0  0  0  0
 27 50  1  0  0  0  0
 27 51  1  0  0  0  0
 28 29  1  0  0  0  0
 28 30  1  0  0  0  0
 29 52  1  0  0  0  0
 29 53  1  0  0  0  0
 29 54  1  0  0  0  0
 30 55  1  0  0  0  0
 30 56  1  0  0  0  0
 30 57  1  0  0  0  0
M  END
> <PUBCHEM_COMPOUND_CID>
134611548

> <PUBCHEM_CONFORMER_RMSD>
1

> <PUBCHEM_CONFORMER_DIVERSEORDER>
1
21
58
18
8
76
17
87
30
15
27
12
43
60
55
40
10
48
71
32
84
78
54
70
2
35
24
4
39
59
5
34
28
53
77
62
14
45
46
7
37
19
47
81
82
50
63
42
72
44
69
9
68
51
38
31
26
3
49
20
52
41
73
56
33
57
6
75
11
85
86
66
74
16
88
23
64
36
25
80
65
29
67
79
22
61
83
13

> <PUBCHEM_MMFF94_PARTIAL_CHARGES>
28
1 -0.57
15 0.2
16 -0.15
17 0.01
18 0.23
2 -0.68
20 0.24
21 0.11
22 0.36
23 0.16
24 -0.15
25 0.57
26 -0.3
27 0.3
28 0.28
3 0.05
4 -0.57
45 0.15
46 0.15
47 0.27
48 0.15
49 0.37
5 -0.57
58 0.4
6 0.03
7 -0.73
8 -0.56
9 0.26

> <PUBCHEM_EFFECTIVE_ROTOR_COUNT>
8.2

> <PUBCHEM_PHARMACOPHORE_FEATURES>
13
1 1 acceptor
1 2 acceptor
1 2 donor
1 6 donor
1 7 donor
1 8 acceptor
3 28 29 30 hydrophobe
3 3 4 17 cation
3 5 6 21 cation
5 3 4 16 17 18 rings
5 6 19 21 24 26 rings
6 5 16 18 19 21 23 rings
6 9 10 11 12 13 14 rings

> <PUBCHEM_HEAVY_ATOM_COUNT>
30

> <PUBCHEM_ATOM_DEF_STEREO_COUNT>
0

> <PUBCHEM_ATOM_UDEF_STEREO_COUNT>
0

> <PUBCHEM_BOND_DEF_STEREO_COUNT>
0

> <PUBCHEM_BOND_UDEF_STEREO_COUNT>
0

> <PUBCHEM_ISOTOPIC_ATOM_COUNT>
0

> <PUBCHEM_COMPONENT_COUNT>
1

> <PUBCHEM_CACTVS_TAUTO_COUNT>
49

> <PUBCHEM_CONFORMER_ID>
0806025C00000001

> <PUBCHEM_MMFF94_ENERGY>
80.1815

> <PUBCHEM_FEATURE_SELFOVERLAP>
66.205

> <PUBCHEM_SHAPE_FINGERPRINT>
10190108 129 17261878162051788415
10556698 54 17465336921777515685
107951 10 17244696012191753288
10871710 139 17690007729981875641
1100329 8 18195818357699722569
11513181 2 18267009743123205527
12156800 1 14637078619452190958
12293681 160 17970918756117355450
12788726 201 17830452774092964818
13540713 4 18114461262645477531
13757389 114 17408262265322401584
14508225 48 18269276751394726322
14955137 171 18122649183597358235
15475509 8 17913209754962948625
15664445 248 18339357449232816106
20028762 73 16825596397831394339
20642791 239 18190459351147701521
20771845 165 18045506567193007460
21133665 82 17972876141426357056
21344244 246 18197781213820294558
23559900 14 18411972551178549257
3298306 158 18195247952051950420
350125 39 18189050911908745925
4017518 198 18054794155641557084
4280585 95 18267013960760068738
46194498 28 18411131481050872807
5085150 59 18124306367096836888
5265222 85 17614571762494381220
532947 4 18337956808931608576
57527295 17 17774442814857221977
6669772 16 18125163981274675694

> <PUBCHEM_SHAPE_MULTIPOLES>
575.76
10.91
6.16
1.52
3.43
5.01
0
-3.64
6.34
-10.53
-0.02
-0.31
-0.32
2.03

> <PUBCHEM_SHAPE_SELFOVERLAP>
1239.087

> <PUBCHEM_SHAPE_VOLUME>
314.4

> <PUBCHEM_COORDINATE_TYPE>
2
5
10

$$$$
16662431
  -OEChem-11282412143D

 57 60  0     0  0  0  0  0  0999 V2000
   -7.8092    2.1978   -0.9910 F   0  0  0  0  0  0  0  0  0  0  0  0
    2.6259    0.2914    1.7564 O   0  0  0  0  0  0  0  0  0  0  0  0
   -2.2452   -1.9031    0.9477 O   0  0  0  0  0  0  0  0  0  0  0  0
    3.3799   -0.6308   -0.2579 N   0  0  0  0  0  0  0  0  0  0  0  0
   -0.5497   -0.3723   -1.4467 N   0  0  0  0  0  0  0  0  0  0  0  0
    6.9428    0.3323    0.3026 N   0  0  0  0  0  0  0  0  0  0  0  0
   -4.6012   -1.7525    1.0318 N   0  0  0  0  0  0  0  0  0  0  0  0
    3.1305   -0.8323   -1.7012 C   0  0  0  0  0  0  0  0  0  0  0  0
    1.7206   -1.3482   -2.0125 C   0  0  0  0  0  0  0  0  0  0  0  0
    0.7692   -0.5922   -1.1716 C   0  0  0  0  0  0  0  0  0  0  0  0
    1.0739   -0.0086    0.0377 C   0  0  0  0  0  0  0  0  0  0  0  0
    4.7575   -0.7596    0.1904 C   0  0  0  0  0  0  0  0  0  0  0  0
    2.4081   -0.0845    0.6076 C   0  0  0  0  0  0  0  0  0  0  0  0
   -0.1192    0.5818    0.5223 C   0  0  0  0  0  0  0  0  0  0  0  0
    5.5748    0.4692   -0.1803 C   0  0  0  0  0  0  0  0  0  0  0  0
   -1.1036    0.3469   -0.4166 C   0  0  0  0  0  0  0  0  0  0  0  0
   -0.2890    1.3120    1.7964 C   0  0  0  0  0  0  0  0  0  0  0  0
   -2.4639    0.6839   -0.5108 C   0  0  0  0  0  0  0  0  0  0  0  0
    7.7356    1.5116   -0.0506 C   0  0  0  0  0  0  0  0  0  0  0  0
    7.5638   -0.8772   -0.2412 C   0  0  0  0  0  0  0  0  0  0  0  0
   -3.4913   -0.0489   -0.0191 C   0  0  0  0  0  0  0  0  0  0  0  0
   -4.9210    0.2358   -0.0786 C   0  0  0  0  0  0  0  0  0  0  0  0
    7.1096    2.7801    0.5038 C   0  0  0  0  0  0  0  0  0  0  0  0
    8.9678   -1.0676    0.3071 C   0  0  0  0  0  0  0  0  0  0  0  0
   -5.5482   -0.8296    0.5738 C   0  0  0  0  0  0  0  0  0  0  0  0
   -3.3019   -1.3487    0.7081 C   0  0  0  0  0  0  0  0  0  0  0  0
   -5.6638    1.2702   -0.6154 C   0  0  0  0  0  0  0  0  0  0  0  0
   -6.9199   -0.9057    0.7155 C   0  0  0  0  0  0  0  0  0  0  0  0
   -7.0554    1.2131   -0.4834 C   0  0  0  0  0  0  0  0  0  0  0  0
   -7.6773    0.1356    0.1756 C   0  0  0  0  0  0  0  0  0  0  0  0
    3.2833    0.1421   -2.1820 H   0  0  0  0  0  0  0  0  0  0  0  0
    3.8696   -1.5308   -2.1083 H   0  0  0  0  0  0  0  0  0  0  0  0
    1.5025   -1.2377   -3.0796 H   0  0  0  0  0  0  0  0  0  0  0  0
    1.6518   -2.4130   -1.7603 H   0  0  0  0  0  0  0  0  0  0  0  0
    5.1164   -1.6872   -0.2618 H   0  0  0  0  0  0  0  0  0  0  0  0
    4.7639   -0.8992    1.2784 H   0  0  0  0  0  0  0  0  0  0  0  0
    5.5529    0.6283   -1.2664 H   0  0  0  0  0  0  0  0  0  0  0  0
    5.0733    1.3272    0.2806 H   0  0  0  0  0  0  0  0  0  0  0  0
   -1.0370   -0.6933   -2.2729 H   0  0  0  0  0  0  0  0  0  0  0  0
   -0.1450    0.6361    2.6455 H   0  0  0  0  0  0  0  0  0  0  0  0
   -1.2856    1.7551    1.8888 H   0  0  0  0  0  0  0  0  0  0  0  0
    0.4405    2.1248    1.8748 H   0  0  0  0  0  0  0  0  0  0  0  0
   -2.6913    1.6147   -1.0257 H   0  0  0  0  0  0  0  0  0  0  0  0
    8.7328    1.4540    0.3975 H   0  0  0  0  0  0  0  0  0  0  0  0
    7.8642    1.6090   -1.1360 H   0  0  0  0  0  0  0  0  0  0  0  0
    7.5865   -0.8729   -1.3381 H   0  0  0  0  0  0  0  0  0  0  0  0
    7.0339   -1.7776    0.0790 H   0  0  0  0  0  0  0  0  0  0  0  0
    7.8295    3.6035    0.4342 H   0  0  0  0  0  0  0  0  0  0  0  0
    6.8399    2.6735    1.5602 H   0  0  0  0  0  0  0  0  0  0  0  0
    6.2263    3.0933   -0.0613 H   0  0  0  0  0  0  0  0  0  0  0  0
    9.6899   -0.3798   -0.1435 H   0  0  0  0  0  0  0  0  0  0  0  0
    8.9983   -0.9533    1.3962 H   0  0  0  0  0  0  0  0  0  0  0  0
    9.3184   -2.0802    0.0762 H   0  0  0  0  0  0  0  0  0  0  0  0
   -4.8420   -2.6000    1.5320 H   0  0  0  0  0  0  0  0  0  0  0  0
   -5.1963    2.1052   -1.1251 H   0  0  0  0  0  0  0  0  0  0  0  0
   -7.3973   -1.7360    1.2231 H   0  0  0  0  0  0  0  0  0  0  0  0
   -8.7603    0.1165    0.2638 H   0  0  0  0  0  0  0  0  0  0  0  0
  1 29  1  0  0  0  0
  2 13  2  0  0  0  0
  3 26  2  0  0  0  0
  4  8  1  0  0  0  0
  4 12  1  0  0  0  0
  4 13  1  0  0  0  0
  5 10  1  0  0  0  0
  5 16  1  0  0  0  0
  5 39  1  0  0  0  0
  6 15  1  0  0  0  0
  6 19  1  0  0  0  0
  6 20  1  0  0  0  0
  7 25  1  0  0  0  0
  7 26  1  0  0  0  0
  7 54  1  0  0  0  0
  8  9  1  0  0  0  0
  8 31  1  0  0  0  0
  8 32  1  0  0  0  0
  9 10  1  0  0  0  0
  9 33  1  0  0  0  0
  9 34  1  0  0  0  0
 10 11  2  0  0  0  0
 11 13  1  0  0  0  0
 11 14  1  0  0  0  0
 12 15  1  0  0  0  0
 12 35  1  0  0  0  0
 12 36  1  0  0  0  0
 14 16  2  0  0  0  0
 14 17  1  0  0  0  0
 15 37  1  0  0  0  0
 15 38  1  0  0  0  0
 16 18  1  0  0  0  0
 17 40  1  0  0  0  0
 17 41  1  0  0  0  0
 17 42  1  0  0  0  0
 18 21  2  0  0  0  0
 18 43  1  0  0  0  0
 19 23  1  0  0  0  0
 19 44  1  0  0  0  0
 19 45  1  0  0  0  0
 20 24  1  0  0  0  0
 20 46  1  0  0  0  0
 20 47  1  0  0  0  0
 21 22  1  0  0  0  0
 21 26  1  0  0  0  0
 22 25  2  0  0  0  0
 22 27  1  0  0  0  0
 23 48  1  0  0  0  0
 23 49  1  0  0  0  0
 23 50  1  0  0  0  0
 24 51  1  0  0  0  0
 24 52  1  0  0  0  0
 24 53  1  0  0  0  0
 25 28  1  0  0  0  0
 27 29  2  0  0  0  0
 27 55  1  0  0  0  0
 28 30  2  0  0  0  0
 28 56  1  0  0  0  0
 29 30  1  0  0  0  0
 30 57  1  0  0  0  0
M  END
> <PUBCHEM_COMPOUND_CID>
16662431

> <PUBCHEM_CONFORMER_RMSD>
0.8

> <PUBCHEM_CONFORMER_DIVERSEORDER>
3
42
4
43
39
52
38
15
47
22
25
30
36
56
41
37
44
1
29
53
49
50
8
31
13
51
16
34
5
48
35
46
33
27
26
12
11
32
6
14
45
40
55
9
10
19
2
20
54
7
28
23
24
21
18
17

> <PUBCHEM_MMFF94_PARTIAL_CHARGES>
34
1 -0.19
10 -0.33
11 -0.09
12 0.3
13 0.72
14 -0.18
15 0.27
16 -0.2
17 0.18
18 -0.11
19 0.27
2 -0.57
20 0.27
21 -0.01
22 0.03
25 0.12
26 0.62
27 -0.15
28 -0.15
29 0.19
3 -0.57
30 -0.15
39 0.27
4 -0.66
43 0.15
5 0.03
54 0.37
55 0.15
56 0.15
57 0.15
6 -0.81
7 -0.55
8 0.3
9 0.18

> <PUBCHEM_EFFECTIVE_ROTOR_COUNT>
6.8

> <PUBCHEM_PHARMACOPHORE_FEATURES>
10
1 2 acceptor
1 3 acceptor
1 5 cation
1 5 donor
1 6 cation
1 7 donor
5 5 10 11 14 16 rings
5 7 21 22 25 26 rings
6 22 25 27 28 29 30 rings
6 4 8 9 10 11 13 rings

> <PUBCHEM_HEAVY_ATOM_COUNT>
30

> <PUBCHEM_ATOM_DEF_STEREO_COUNT>
0

> <PUBCHEM_ATOM_UDEF_STEREO_COUNT>
0

> <PUBCHEM_BOND_DEF_STEREO_COUNT>
1

> <PUBCHEM_BOND_UDEF_STEREO_COUNT>
0

> <PUBCHEM_ISOTOPIC_ATOM_COUNT>
0

> <PUBCHEM_COMPONENT_COUNT>
1

> <PUBCHEM_CACTVS_TAUTO_COUNT>
4

> <PUBCHEM_CONFORMER_ID>
00FE3F9F00000003

> <PUBCHEM_MMFF94_ENERGY>
70.8011

> <PUBCHEM_FEATURE_SELFOVERLAP>
50.93

> <PUBCHEM_SHAPE_FINGERPRINT>
10 15 18341614841230713726
10299344 5 17240482502844581354
10835480 77 18411700972038765981
11315181 36 18272373079634646329
11719270 70 18273496758890857782
12236239 1 16732990821339215287
12838862 33 17203314594984286026
13885169 127 18261392221994213469
14251764 18 15123510298209673142
14251764 46 18186519895970259487
14394314 77 17676204646238891501
1454969 45 17346602980127819264
15131766 46 18049723220741283964
15183329 4 13695587763211244066
15301273 46 18408885131513158740
17093844 174 18040154020656635153
21150785 3 13110962024442848326
21267235 1 13623530134945479366
21792961 116 18131068174227514976
22224240 67 18334293184416448102
22311459 1 16917349234387145330
23559900 14 18410571816947665705
23569943 247 13037535496011969516
23576562 1 17416674941897115909
249057 3 17821731649608643158
3178227 256 17632864148281805010
4073 2 17676493899200915738
4325135 7 17603586327109062810
4340502 62 18333449846725030198
4403749 210 18129940220810068102
444735 82 18261115231486372764
4625314 4 18410857676990851574
5265222 85 18335421326085112515
5758199 1 16732982024745182920
636775 72 18339080381605402741
7226269 152 18408886210030316417

> <PUBCHEM_SHAPE_MULTIPOLES>
578.45
25.7
1.79
1.34
14.59
0.71
-0.12
6.02
0.81
1.13
0.01
-0.32
-0.21
1.94

> <PUBCHEM_SHAPE_SELFOVERLAP>
1255.107

> <PUBCHEM_SHAPE_VOLUME>
321.4

> <PUBCHEM_COORDINATE_TYPE>
2
5
10

$$$$
44247727
  -OEChem-11282412143D

 60 63  0     0  0  0  0  0  0999 V2000
   -3.9384   -3.5633    0.1452 S   0  0  0  0  0  0  0  0  0  0  0  0
    0.4455   -2.8046    2.6367 F   0  0  0  0  0  0  0  0  0  0  0  0
    2.3663   -1.2585    1.3892 O   0  0  0  0  0  0  0  0  0  0  0  0
    7.5096    1.5845   -1.1334 O   0  0  0  0  0  0  0  0  0  0  0  0
    6.7773    2.8783    1.4551 O   0  0  0  0  0  0  0  0  0  0  0  0
   -4.8728    0.8456   -1.1289 O   0  0  0  0  0  0  0  0  0  0  0  0
    5.0964   -2.4942   -1.4769 N   0  0  0  0  0  0  0  0  0  0  0  0
    4.6791    3.4927    0.6825 N   0  0  0  0  0  0  0  0  0  0  0  0
   -2.9737   -0.9769   -0.1627 N   0  0  0  0  0  0  0  0  0  0  0  0
   -5.2410   -1.4306   -0.6867 N   0  0  0  0  0  0  0  0  0  0  0  0
    4.3367   -0.8081    0.0681 C   0  0  0  0  0  0  0  0  0  0  0  0
    5.2352   -1.2802   -0.9116 C   0  0  0  0  0  0  0  0  0  0  0  0
    3.2769   -1.6424    0.4483 C   0  0  0  0  0  0  0  0  0  0  0  0
    5.5738    1.2730    0.2415 C   0  0  0  0  0  0  0  0  0  0  0  0
    4.5122    0.4645    0.6374 C   0  0  0  0  0  0  0  0  0  0  0  0
    6.4624    0.8146   -0.7231 C   0  0  0  0  0  0  0  0  0  0  0  0
    6.2878   -0.4507   -1.2891 C   0  0  0  0  0  0  0  0  0  0  0  0
    3.1313   -2.8941   -0.1324 C   0  0  0  0  0  0  0  0  0  0  0  0
    1.0394   -1.1887    1.0050 C   0  0  0  0  0  0  0  0  0  0  0  0
    5.7338    2.5883    0.8454 C   0  0  0  0  0  0  0  0  0  0  0  0
    4.0602   -3.2691   -1.0817 C   0  0  0  0  0  0  0  0  0  0  0  0
   -1.6360   -1.0474    0.2275 C   0  0  0  0  0  0  0  0  0  0  0  0
    0.0840   -1.9766    1.6470 C   0  0  0  0  0  0  0  0  0  0  0  0
    0.6570   -0.3299   -0.0257 C   0  0  0  0  0  0  0  0  0  0  0  0
   -1.2537   -1.9060    1.2581 C   0  0  0  0  0  0  0  0  0  0  0  0
   -0.6806   -0.2594   -0.4145 C   0  0  0  0  0  0  0  0  0  0  0  0
   -7.0694   -0.0952   -1.5155 C   0  0  0  0  0  0  0  0  0  0  0  0
   -7.8950    0.8628   -0.6981 C   0  0  0  0  0  0  0  0  0  0  0  0
   -5.6100   -0.1353   -1.0998 C   0  0  0  0  0  0  0  0  0  0  0  0
   -8.5252    0.4227    0.4658 C   0  0  0  0  0  0  0  0  0  0  0  0
   -8.0297    2.1903   -1.1047 C   0  0  0  0  0  0  0  0  0  0  0  0
   -4.0062   -1.9274   -0.2232 C   0  0  0  0  0  0  0  0  0  0  0  0
    7.2787    2.4552   -2.2388 C   0  0  0  0  0  0  0  0  0  0  0  0
    4.6974    4.8414    1.2017 C   0  0  0  0  0  0  0  0  0  0  0  0
   -9.2900    1.3099    1.2232 C   0  0  0  0  0  0  0  0  0  0  0  0
   -8.7944    3.0774   -0.3475 C   0  0  0  0  0  0  0  0  0  0  0  0
   -9.4247    2.6373    0.8166 C   0  0  0  0  0  0  0  0  0  0  0  0
    3.8220    0.8265    1.3973 H   0  0  0  0  0  0  0  0  0  0  0  0
    6.9942   -0.7943   -2.0435 H   0  0  0  0  0  0  0  0  0  0  0  0
    2.3318   -3.5721    0.1446 H   0  0  0  0  0  0  0  0  0  0  0  0
    3.9990   -4.2373   -1.5677 H   0  0  0  0  0  0  0  0  0  0  0  0
    1.3864    0.2978   -0.5302 H   0  0  0  0  0  0  0  0  0  0  0  0
   -1.9673   -2.4908    1.8266 H   0  0  0  0  0  0  0  0  0  0  0  0
   -0.9648    0.4148   -1.2187 H   0  0  0  0  0  0  0  0  0  0  0  0
   -7.5312   -1.0892   -1.4821 H   0  0  0  0  0  0  0  0  0  0  0  0
   -7.0962    0.1964   -2.5735 H   0  0  0  0  0  0  0  0  0  0  0  0
    3.8464    3.1931    0.1836 H   0  0  0  0  0  0  0  0  0  0  0  0
   -3.1818   -0.1320   -0.6896 H   0  0  0  0  0  0  0  0  0  0  0  0
   -8.4258   -0.6088    0.7935 H   0  0  0  0  0  0  0  0  0  0  0  0
   -7.5423    2.5459   -2.0086 H   0  0  0  0  0  0  0  0  0  0  0  0
   -5.9681   -2.1408   -0.7233 H   0  0  0  0  0  0  0  0  0  0  0  0
    7.0282    1.8778   -3.1345 H   0  0  0  0  0  0  0  0  0  0  0  0
    6.4769    3.1655   -2.0145 H   0  0  0  0  0  0  0  0  0  0  0  0
    8.1976    3.0158   -2.4306 H   0  0  0  0  0  0  0  0  0  0  0  0
    4.1445    5.4842    0.5129 H   0  0  0  0  0  0  0  0  0  0  0  0
    5.7236    5.2013    1.3076 H   0  0  0  0  0  0  0  0  0  0  0  0
    4.2052    4.8391    2.1773 H   0  0  0  0  0  0  0  0  0  0  0  0
   -9.7803    0.9674    2.1298 H   0  0  0  0  0  0  0  0  0  0  0  0
   -8.8990    4.1112   -0.6637 H   0  0  0  0  0  0  0  0  0  0  0  0
  -10.0200    3.3283    1.4063 H   0  0  0  0  0  0  0  0  0  0  0  0
  1 32  2  0  0  0  0
  2 23  1  0  0  0  0
  3 13  1  0  0  0  0
  3 19  1  0  0  0  0
  4 16  1  0  0  0  0
  4 33  1  0  0  0  0
  5 20  2  0  0  0  0
  6 29  2  0  0  0  0
  7 12  2  0  0  0  0
  7 21  1  0  0  0  0
  8 20  1  0  0  0  0
  8 34  1  0  0  0  0
  8 47  1  0  0  0  0
  9 22  1  0  0  0  0
  9 32  1  0  0  0  0
  9 48  1  0  0  0  0
 10 29  1  0  0  0  0
 10 32  1  0  0  0  0
 10 51  1  0  0  0  0
 11 12  1  0  0  0  0
 11 13  2  0  0  0  0
 11 15  1  0  0  0  0
 12 17  1  0  0  0  0
 13 18  1  0  0  0  0
 14 15  2  0  0  0  0
 14 16  1  0  0  0  0
 14 20  1  0  0  0  0
 15 38  1  0  0  0  0
 16 17  2  0  0  0  0
 17 39  1  0  0  0  0
 18 21  2  0  0  0  0
 18 40  1  0  0  0  0
 19 23  2  0  0  0  0
 19 24  1  0  0  0  0
 21 41  1  0  0  0  0
 22 25  2  0  0  0  0
 22 26  1  0  0  0  0
 23 25  1  0  0  0  0
 24 26  2  0  0  0  0
 24 42  1  0  0  0  0
 25 43  1  0  0  0  0
 26 44  1  0  0  0  0
 27 28  1  0  0  0  0
 27 29  1  0  0  0  0
 27 45  1  0  0  0  0
 27 46  1  0  0  0  0
 28 30  2  0  0  0  0
 28 31  1  0  0  0  0
 30 35  1  0  0  0  0
 30 49  1  0  0  0  0
 31 36  2  0  0  0  0
 31 50  1  0  0  0  0
 33 52  1  0  0  0  0
 33 53  1  0  0  0  0
 33 54  1  0  0  0  0
 34 55  1  0  0  0  0
 34 56  1  0  0  0  0
 34 57  1  0  0  0  0
 35 37  2  0  0  0  0
 35 58  1  0  0  0  0
 36 37  1  0  0  0  0
 36 59  1  0  0  0  0
 37 60  1  0  0  0  0
M  END
> <PUBCHEM_COMPOUND_CID>
44247727

> <PUBCHEM_CONFORMER_RMSD>
1.2

> <PUBCHEM_CONFORMER_DIVERSEORDER>
1
107
234
226
223
75
179
121
9
218
181
128
215
151
242
262
31
119
209
239
77
104
265
29
69
88
225
64
253
224
196
138
237
113
182
192
271
147
214
46
60
189
252
222
97
137
37
70
120
254
177
136
220
259
49
219
174
114
258
250
102
53
272
133
264
154
204
41
210
140
124
160
270
32
235
30
139
256
125
161
109
48
207
176
108
143
172
141
267
166
191
28
169
243
195
127
238
170
42
122
198
27
212
118
233
269
85
165
251
171
236
56
40
163
193
89
199
33
144
194
229
68
149
47
203
148
216
73
103
268
153
249
157
245
62
263
57
146
83
175
261
50
110
257
98
246
241
116
19
190
132
150
74
87
66
155
188
22
230
205
240
200
45
228
54
90
43
134
187
131
197
71
202
168
162
158
105
206
178
18
123
84
16
17
111
59
167
13
126
51
86
227
130
67
156
94
39
266
58
201
217
145
91
213
34
112
61
129
65
164
186
231
248
244
173
184
36
183
96
38
208
152
95
26
232
99
159
255
185
6
55
81
14
63
142
93
72
25
100
180
117
115
211
92
135
44
35
12
79
221
76
3
247
106
23
260
101
52
24
5
80
20
7
21
11
8
2
10
82
4
78
15

> <PUBCHEM_MMFF94_PARTIAL_CHARGES>
51
1 -0.38
10 -0.49
12 0.31
13 0.08
14 0.09
15 -0.15
16 0.08
17 -0.15
18 -0.15
19 0.08
2 -0.19
20 0.54
21 0.16
22 0.12
23 0.19
24 -0.15
25 -0.15
26 -0.15
27 0.2
28 -0.14
29 0.57
3 -0.17
30 -0.15
31 -0.15
32 0.5
33 0.28
34 0.3
35 -0.15
36 -0.15
37 -0.15
38 0.15
39 0.15
4 -0.36
40 0.15
41 0.15
42 0.15
43 0.15
44 0.15
47 0.37
48 0.37
49 0.15
5 -0.57
50 0.15
51 0.37
58 0.15
59 0.15
6 -0.57
60 0.15
7 -0.62
8 -0.73
9 -0.55

> <PUBCHEM_EFFECTIVE_ROTOR_COUNT>
11

> <PUBCHEM_PHARMACOPHORE_FEATURES>
13
1 1 acceptor
1 10 donor
1 3 acceptor
1 4 acceptor
1 5 acceptor
1 6 acceptor
1 7 acceptor
1 8 donor
1 9 donor
6 11 12 14 15 16 17 rings
6 19 22 23 24 25 26 rings
6 28 30 31 35 36 37 rings
6 7 11 12 13 18 21 rings

> <PUBCHEM_HEAVY_ATOM_COUNT>
37

> <PUBCHEM_ATOM_DEF_STEREO_COUNT>
0

> <PUBCHEM_ATOM_UDEF_STEREO_COUNT>
0

> <PUBCHEM_BOND_DEF_STEREO_COUNT>
0

> <PUBCHEM_BOND_UDEF_STEREO_COUNT>
0

> <PUBCHEM_ISOTOPIC_ATOM_COUNT>
0

> <PUBCHEM_COMPONENT_COUNT>
1

> <PUBCHEM_CACTVS_TAUTO_COUNT>
10

> <PUBCHEM_CONFORMER_ID>
02A32AAF00000001

> <PUBCHEM_MMFF94_ENERGY>
137.9148

> <PUBCHEM_FEATURE_SELFOVERLAP>
66.045

> <PUBCHEM_SHAPE_FINGERPRINT>
10055352 69 18409169931570042939
10816530 90 18340759386270847001
10835480 77 18340763831720350751
11135609 127 18201144534295919714
11181472 205 17702674242021213049
11408170 132 18202002105514400084
12539747 72 17968655054891583098
12539765 74 18342460305564823343
14904525 67 18264193743948545941
15064981 113 16343420606224264109
15064981 194 18265910222789157327
15082195 135 18201721735003693730
15183329 4 16199862874833454307
15276724 80 18341327791471264773
15392192 104 9006764385878145750
1577012 14 18411693267526833039
16126227 98 18259704498143472315
16994733 274 18260826020982742627
1754908 1 14201399370313458021
17686467 74 18187363277856536227
17899979 129 18408886213439462862
19304671 126 18410014299431924706
2026 5 11312057639315063701
21033648 29 17530971305902766330
23569943 247 10086550795788410885
24771293 8 17968092070582970255
3711267 37 18261399901997684605
4093350 32 18342457019381591615
44575985 391 18056755662684612608
44880568 143 18268711786658629143
45270241 37 18341901748782593159
4756326 101 17130124624951917312
504579 68 17203611492946061019
5109719 28 17749111084527839213
5223283 242 18268155253640088566
5265222 85 18271521001041982407
5718773 13 9655573024721731859
5758199 1 17894912902466929171
5937810 71 18341895208417247633
6201320 221 14835576721568195260
6201320 82 17824000015977113348
9689198 14 18335424522458587303
9980921 177 17676751112503256226
9980921 221 17059783213655766297

> <PUBCHEM_SHAPE_MULTIPOLES>
714.62
30.99
4.81
1.66
54.91
2.78
-0.11
30.75
6.94
-4.5
-1.22
-1.13
0.06
1.35

> <PUBCHEM_SHAPE_SELFOVERLAP>
1544.178

> <PUBCHEM_SHAPE_VOLUME>
398.3

> <PUBCHEM_COORDINATE_TYPE>
2
5
10

$$$$
46215462
  -OEChem-11282412143D

 72 78  0     1  0  0  0  0  0999 V2000
    8.1315    1.1278   -0.0736 N   0  0  0  0  0  0  0  0  0  0  0  0
    1.3373   -2.5750    0.0701 N   0  0  0  0  0  0  0  0  0  0  0  0
   -2.0759   -2.1067    0.0353 N   0  0  0  0  0  0  0  0  0  0  0  0
   -0.8665   -1.5289   -0.0238 N   0  0  0  0  0  0  0  0  0  0  0  0
   -0.7040   -3.8002    0.1935 N   0  0  0  0  0  0  0  0  0  0  0  0
   -5.5681   -1.2256   -0.0501 N   0  0  0  0  0  0  0  0  0  0  0  0
   -4.4239   -1.9630    0.0193 N   0  0  0  0  0  0  0  0  0  0  0  0
   -3.0743   -4.2354    0.2430 N   0  0  0  0  0  0  0  0  0  0  0  0
    7.1926    0.9239    1.0196 C   0  0  2  0  0  0  0  0  0  0  0  0
    9.3053    0.2614    0.0296 C   0  0  0  0  0  0  0  0  0  0  0  0
    8.6658    2.4891   -0.1042 C   0  0  0  0  0  0  0  0  0  0  0  0
    6.7998   -0.5575    1.1277 C   0  0  0  0  0  0  0  0  0  0  0  0
    5.9978    1.8815    0.8938 C   0  0  0  0  0  0  0  0  0  0  0  0
   10.2852    0.8987   -0.9444 C   0  0  0  0  0  0  0  0  0  0  0  0
    9.8672    2.3634   -1.0296 C   0  0  0  0  0  0  0  0  0  0  0  0
    6.0609   -1.1378   -0.0818 C   0  0  0  0  0  0  0  0  0  0  0  0
    5.1283    1.6973   -0.3532 C   0  0  0  0  0  0  0  0  0  0  0  0
    4.5949   -0.7819   -0.1053 C   0  0  0  0  0  0  0  0  0  0  0  0
    4.1571    0.5490   -0.2325 C   0  0  0  0  0  0  0  0  0  0  0  0
    3.6418   -1.8108   -0.0081 C   0  0  0  0  0  0  0  0  0  0  0  0
    2.7773    0.8171   -0.2587 C   0  0  0  0  0  0  0  0  0  0  0  0
    2.2768   -1.5285   -0.0329 C   0  0  0  0  0  0  0  0  0  0  0  0
    1.8443   -0.2139   -0.1582 C   0  0  0  0  0  0  0  0  0  0  0  0
   -4.7234    3.0882    0.7761 C   0  0  0  0  0  0  0  0  0  0  0  0
   -4.2090    2.2852   -0.4228 C   0  0  0  0  0  0  0  0  0  0  0  0
   -5.9633    2.5323    1.4839 C   0  0  0  0  0  0  0  0  0  0  0  0
   -0.0711   -2.5958    0.0763 C   0  0  0  0  0  0  0  0  0  0  0  0
   -4.2783    0.7927   -0.2407 C   0  0  0  0  0  0  0  0  0  0  0  0
   -7.0262    1.9986    0.5518 C   0  0  0  0  0  0  0  0  0  0  0  0
   -6.7998    0.8247   -0.2082 C   0  0  0  0  0  0  0  0  0  0  0  0
   -5.5043    0.1231   -0.1720 C   0  0  0  0  0  0  0  0  0  0  0  0
   -3.1157    0.0321   -0.1672 C   0  0  0  0  0  0  0  0  0  0  0  0
   -3.2343   -1.3356   -0.0362 C   0  0  0  0  0  0  0  0  0  0  0  0
   -8.2634    2.6573    0.4707 C   0  0  0  0  0  0  0  0  0  0  0  0
   -7.8438    0.3417   -1.0182 C   0  0  0  0  0  0  0  0  0  0  0  0
   -1.9706   -3.4566    0.1643 C   0  0  0  0  0  0  0  0  0  0  0  0
   -9.2781    2.1630   -0.3461 C   0  0  0  0  0  0  0  0  0  0  0  0
   -9.0700    1.0051   -1.0871 C   0  0  0  0  0  0  0  0  0  0  0  0
    7.6893    1.1747    1.9689 H   0  0  0  0  0  0  0  0  0  0  0  0
    9.1102   -0.7726   -0.2711 H   0  0  0  0  0  0  0  0  0  0  0  0
    9.7350    0.2665    1.0397 H   0  0  0  0  0  0  0  0  0  0  0  0
    8.9972    2.8254    0.8866 H   0  0  0  0  0  0  0  0  0  0  0  0
    7.9602    3.2205   -0.5099 H   0  0  0  0  0  0  0  0  0  0  0  0
    6.1708   -0.6797    2.0211 H   0  0  0  0  0  0  0  0  0  0  0  0
    7.6816   -1.1758    1.3340 H   0  0  0  0  0  0  0  0  0  0  0  0
    6.3412    2.9223    0.9307 H   0  0  0  0  0  0  0  0  0  0  0  0
    5.3698    1.7683    1.7889 H   0  0  0  0  0  0  0  0  0  0  0  0
   10.2093    0.4342   -1.9347 H   0  0  0  0  0  0  0  0  0  0  0  0
   11.3194    0.7916   -0.6017 H   0  0  0  0  0  0  0  0  0  0  0  0
   10.6780    3.0342   -0.7278 H   0  0  0  0  0  0  0  0  0  0  0  0
    9.5929    2.6105   -2.0620 H   0  0  0  0  0  0  0  0  0  0  0  0
    6.5246   -0.8401   -1.0293 H   0  0  0  0  0  0  0  0  0  0  0  0
    6.1633   -2.2300   -0.0391 H   0  0  0  0  0  0  0  0  0  0  0  0
    4.5646    2.6273   -0.5043 H   0  0  0  0  0  0  0  0  0  0  0  0
    5.7318    1.5735   -1.2598 H   0  0  0  0  0  0  0  0  0  0  0  0
    3.9741   -2.8428    0.0894 H   0  0  0  0  0  0  0  0  0  0  0  0
    2.4183    1.8391   -0.3576 H   0  0  0  0  0  0  0  0  0  0  0  0
    0.8040    0.0794   -0.1855 H   0  0  0  0  0  0  0  0  0  0  0  0
    1.7879   -3.4842    0.1558 H   0  0  0  0  0  0  0  0  0  0  0  0
   -3.9225    3.1752    1.5218 H   0  0  0  0  0  0  0  0  0  0  0  0
   -4.9293    4.1106    0.4339 H   0  0  0  0  0  0  0  0  0  0  0  0
   -4.7811    2.5515   -1.3218 H   0  0  0  0  0  0  0  0  0  0  0  0
   -3.1799    2.5990   -0.6395 H   0  0  0  0  0  0  0  0  0  0  0  0
   -6.3792    3.3183    2.1273 H   0  0  0  0  0  0  0  0  0  0  0  0
   -5.6720    1.7290    2.1741 H   0  0  0  0  0  0  0  0  0  0  0  0
   -2.1562    0.5375   -0.2198 H   0  0  0  0  0  0  0  0  0  0  0  0
   -8.4465    3.5585    1.0507 H   0  0  0  0  0  0  0  0  0  0  0  0
   -7.7066   -0.5551   -1.6194 H   0  0  0  0  0  0  0  0  0  0  0  0
  -10.2319    2.6795   -0.4004 H   0  0  0  0  0  0  0  0  0  0  0  0
   -9.8605    0.6177   -1.7234 H   0  0  0  0  0  0  0  0  0  0  0  0
   -4.0214   -3.8739    0.2118 H   0  0  0  0  0  0  0  0  0  0  0  0
   -2.9980   -5.2431    0.3397 H   0  0  0  0  0  0  0  0  0  0  0  0
  1  9  1  0  0  0  0
  1 10  1  0  0  0  0
  1 11  1  0  0  0  0
  2 22  1  0  0  0  0
  2 27  1  0  0  0  0
  2 59  1  0  0  0  0
  3  4  1  0  0  0  0
  3 33  1  0  0  0  0
  3 36  1  0  0  0  0
  4 27  2  0  0  0  0
  5 27  1  0  0  0  0
  5 36  2  0  0  0  0
  6  7  1  0  0  0  0
  6 31  2  0  0  0  0
  7 33  2  0  0  0  0
  8 36  1  0  0  0  0
  8 71  1  0  0  0  0
  8 72  1  0  0  0  0
  9 12  1  0  0  0  0
  9 13  1  0  0  0  0
  9 39  1  0  0  0  0
 10 14  1  0  0  0  0
 10 40  1  0  0  0  0
 10 41  1  0  0  0  0
 11 15  1  0  0  0  0
 11 42  1  0  0  0  0
 11 43  1  0  0  0  0
 12 16  1  0  0  0  0
 12 44  1  0  0  0  0
 12 45  1  0  0  0  0
 13 17  1  0  0  0  0
 13 46  1  0  0  0  0
 13 47  1  0  0  0  0
 14 15  1  0  0  0  0
 14 48  1  0  0  0  0
 14 49  1  0  0  0  0
 15 50  1  0  0  0  0
 15 51  1  0  0  0  0
 16 18  1  0  0  0  0
 16 52  1  0  0  0  0
 16 53  1  0  0  0  0
 17 19  1  0  0  0  0
 17 54  1  0  0  0  0
 17 55  1  0  0  0  0
 18 19  2  0  0  0  0
 18 20  1  0  0  0  0
 19 21  1  0  0  0  0
 20 22  2  0  0  0  0
 20 56  1  0  0  0  0
 21 23  2  0  0  0  0
 21 57  1  0  0  0  0
 22 23  1  0  0  0  0
 23 58  1  0  0  0  0
 24 25  1  0  0  0  0
 24 26  1  0  0  0  0
 24 60  1  0  0  0  0
 24 61  1  0  0  0  0
 25 28  1  0  0  0  0
 25 62  1  0  0  0  0
 25 63  1  0  0  0  0
 26 29  1  0  0  0  0
 26 64  1  0  0  0  0
 26 65  1  0  0  0  0
 28 31  1  0  0  0  0
 28 32  2  0  0  0  0
 29 30  1  0  0  0  0
 29 34  2  0  0  0  0
 30 31  1  0  0  0  0
 30 35  2  0  0  0  0
 32 33  1  0  0  0  0
 32 66  1  0  0  0  0
 34 37  1  0  0  0  0
 34 67  1  0  0  0  0
 35 38  1  0  0  0  0
 35 68  1  0  0  0  0
 37 38  2  0  0  0  0
 37 69  1  0  0  0  0
 38 70  1  0  0  0  0
M  END
> <PUBCHEM_COMPOUND_CID>
46215462

> <PUBCHEM_CONFORMER_RMSD>
1

> <PUBCHEM_CONFORMER_DIVERSEORDER>
1
92
27
39
5
66
46
93
117
30
106
41
87
121
33
58
96
67
49
29
17
70
53
85
34
71
62
123
122
20
78
60
115
22
68
52
83
2
63
15
98
69
81
26
14
79
61
114
116
59
57
64
28
102
18
108
94
89
84
23
90
8
25
82
4
76
38
100
120
125
9
113
35
32
44
3
91
11
31
51
12
95
77
104
124
56
80
48
19
112
10
107
105
54
101
42
45
109
99
24
72
37
47
13
97
118
7
110
119
88
65
74
75
21
103
73
111
43
55
36
6
16
86
40
50

> <PUBCHEM_MMFF94_PARTIAL_CHARGES>
43
1 -0.81
10 0.27
11 0.27
16 0.14
17 0.14
18 -0.14
19 -0.14
2 -0.58
20 -0.15
21 -0.15
22 0.1
23 -0.15
25 0.14
26 0.14
27 0.6
28 -0.14
29 -0.14
3 0.59
31 0.31
32 -0.15
33 0.29
34 -0.15
35 -0.15
36 0.27
37 -0.15
38 -0.15
4 -0.71
5 -0.57
56 0.15
57 0.15
58 0.15
59 0.4
6 -0.31
66 0.15
67 0.15
68 0.15
69 0.15
7 -0.31
70 0.15
71 0.4
72 0.4
8 -0.88
9 0.27

> <PUBCHEM_EFFECTIVE_ROTOR_COUNT>
6.6

> <PUBCHEM_PHARMACOPHORE_FEATURES>
13
1 1 cation
1 2 donor
1 6 acceptor
1 8 donor
4 2 4 5 27 cation
4 3 5 8 36 cation
5 1 10 11 14 15 rings
5 3 4 5 27 36 rings
6 18 19 20 21 22 23 rings
6 29 30 34 35 37 38 rings
6 6 7 28 31 32 33 rings
7 24 25 26 28 29 30 31 rings
7 9 12 13 16 17 18 19 rings

> <PUBCHEM_HEAVY_ATOM_COUNT>
38

> <PUBCHEM_ATOM_DEF_STEREO_COUNT>
1

> <PUBCHEM_ATOM_UDEF_STEREO_COUNT>
0

> <PUBCHEM_BOND_DEF_STEREO_COUNT>
0

> <PUBCHEM_BOND_UDEF_STEREO_COUNT>
0

> <PUBCHEM_ISOTOPIC_ATOM_COUNT>
0

> <PUBCHEM_COMPONENT_COUNT>
1

> <PUBCHEM_CACTVS_TAUTO_COUNT>
5

> <PUBCHEM_CONFORMER_ID>
02C1312600000001

> <PUBCHEM_MMFF94_ENERGY>
112.7713

> <PUBCHEM_FEATURE_SELFOVERLAP>
66.17

> <PUBCHEM_SHAPE_FINGERPRINT>
10 15 18040433282796786408
10625338 131 18411694409924746336
10930396 42 16660364771579880101
10939801 23 18333730200361465608
11135609 187 18337104550761993353
11146851 88 18411135848652999597
11181472 205 18335422370943579666
11273773 42 18272646836555126117
11409948 8 18334306375452862179
11421887 21 18129949957933548697
11421887 45 18339909489601047296
11455722 242 9943813270866454416
12013929 2 18342461435921131350
12522641 68 18201999941389928375
13248334 5 18122906417558337667
13383665 225 18188507839264379564
13530399 1 17895482544301821164
13947947 74 18131630080467344193
14040222 383 18413386553508169433
14394314 77 18270122293576642249
14400156 260 18114177528874308306
15145343 59 16845278497586528000
15150948 74 18409448068176314965
15152005 290 18410855464597527359
15289351 153 18342171120942097626
15320295 198 18059007397492532872
15351339 4 18201152148782488457
15399244 5 18342727556099725968
15439362 3 18342178843541995286
15461852 350 17845650473068193158
15685185 35 18410011044684711437
15840311 113 18259987038182460310
15890870 6 18410292505895603945
16087824 20 18408603643467683580
16126227 98 18411700972170465891
16758388 162 18335972092160197392
18603816 31 13335030430327747849
19302320 297 18114186349920249084
19315958 150 18409732833287475646
20105231 36 11311764108570881765
21298829 104 18411138030326814180
23522609 53 17677625318958125524
24771293 8 18410012118237015093
306946 40 17059763517320680488
3918712 181 18338791222551644441
4073 2 18187648046446104402
44280117 145 18269834367432199207
44802255 64 17418094355642520615
4516262 110 18187075118935221623
5470011 282 13254502206919085426
5719381 82 9943807785581411484
5776283 40 18272085011218894937
636775 72 18411136910095282665
6673363 416 18059853983477022657
99344 41 18410292476643612509
9961470 85 18196926893549873961
9962374 69 9871744698686616926
9980921 7 18186795886600710125

> <PUBCHEM_SHAPE_MULTIPOLES>
742.17
35.9
4.14
0.92
28.44
2.87
-0.07
-33.9
4.82
-3.67
-0.58
0.02
-0.44
-1.38

> <PUBCHEM_SHAPE_SELFOVERLAP>
1640.498

> <PUBCHEM_SHAPE_VOLUME>
388.9

> <PUBCHEM_COORDINATE_TYPE>
2
5
10

$$$$
46834118
  -OEChem-11282412143D

 64 68  0     1  0  0  0  0  0999 V2000
   -5.9397   -2.2685    0.5666 F   0  0  0  0  0  0  0  0  0  0  0  0
    5.6790   -4.8318    0.5292 O   0  0  0  0  0  0  0  0  0  0  0  0
   -0.1989    1.7990    0.5805 N   0  0  0  0  0  0  0  0  0  0  0  0
   -1.5853    3.7685    0.6234 N   0  0  0  0  0  0  0  0  0  0  0  0
    0.6965    3.9148    0.1063 N   0  0  0  0  0  0  0  0  0  0  0  0
    4.7289   -1.6132   -0.9798 N   0  0  0  0  0  0  0  0  0  0  0  0
   -3.6135   -0.6992    1.0257 C   0  0  2  0  0  0  0  0  0  0  0  0
   -3.7008    0.7627    1.5214 C   0  0  0  0  0  0  0  0  0  0  0  0
   -2.2005   -1.2637    1.1119 C   0  0  0  0  0  0  0  0  0  0  0  0
   -2.5351    1.6054    1.1002 C   0  0  0  0  0  0  0  0  0  0  0  0
   -1.0765   -0.4069    1.0447 C   0  0  0  0  0  0  0  0  0  0  0  0
   -1.2744    1.0462    0.9109 C   0  0  0  0  0  0  0  0  0  0  0  0
   -4.2472   -0.8789   -0.3497 C   0  0  0  0  0  0  0  0  0  0  0  0
   -2.0221   -2.6532    1.2254 C   0  0  0  0  0  0  0  0  0  0  0  0
    0.2042   -0.9848    1.1021 C   0  0  0  0  0  0  0  0  0  0  0  0
   -2.6262    2.9796    0.9538 C   0  0  0  0  0  0  0  0  0  0  0  0
   -5.3896   -1.6655   -0.4964 C   0  0  0  0  0  0  0  0  0  0  0  0
   -3.6823   -0.2551   -1.4620 C   0  0  0  0  0  0  0  0  0  0  0  0
   -0.7431   -3.2000    1.2816 C   0  0  0  0  0  0  0  0  0  0  0  0
    0.3685   -2.3667    1.2207 C   0  0  0  0  0  0  0  0  0  0  0  0
   -0.4191    3.1222    0.4536 C   0  0  0  0  0  0  0  0  0  0  0  0
   -5.9674   -1.8281   -1.7555 C   0  0  0  0  0  0  0  0  0  0  0  0
   -4.2599   -0.4178   -2.7213 C   0  0  0  0  0  0  0  0  0  0  0  0
   -5.4025   -1.2043   -2.8680 C   0  0  0  0  0  0  0  0  0  0  0  0
    2.0452    3.6021   -0.1470 C   0  0  0  0  0  0  0  0  0  0  0  0
    4.0847    0.7203   -1.5023 C   0  0  0  0  0  0  0  0  0  0  0  0
    3.7211    2.0492   -0.9319 C   0  0  0  0  0  0  0  0  0  0  0  0
    2.3845    2.3591   -0.6808 C   0  0  0  0  0  0  0  0  0  0  0  0
    4.3495   -0.3250   -0.4095 C   0  0  0  0  0  0  0  0  0  0  0  0
    3.0423    4.5355    0.1358 C   0  0  0  0  0  0  0  0  0  0  0  0
    4.7185    2.9826   -0.6491 C   0  0  0  0  0  0  0  0  0  0  0  0
    4.3791    4.2257   -0.1152 C   0  0  0  0  0  0  0  0  0  0  0  0
    4.9860   -2.5891    0.0692 C   0  0  0  0  0  0  0  0  0  0  0  0
    5.4230   -3.9170   -0.5283 C   0  0  0  0  0  0  0  0  0  0  0  0
    6.0732   -6.1042    0.0341 C   0  0  0  0  0  0  0  0  0  0  0  0
   -4.2178   -1.2725    1.7439 H   0  0  0  0  0  0  0  0  0  0  0  0
   -4.6457    1.2203    1.2021 H   0  0  0  0  0  0  0  0  0  0  0  0
   -3.7038    0.7614    2.6204 H   0  0  0  0  0  0  0  0  0  0  0  0
   -2.8833   -3.3155    1.2695 H   0  0  0  0  0  0  0  0  0  0  0  0
    1.0974   -0.3659    1.0608 H   0  0  0  0  0  0  0  0  0  0  0  0
   -3.5655    3.5018    1.1049 H   0  0  0  0  0  0  0  0  0  0  0  0
   -2.7900    0.3560   -1.3893 H   0  0  0  0  0  0  0  0  0  0  0  0
   -0.6140   -4.2744    1.3711 H   0  0  0  0  0  0  0  0  0  0  0  0
    1.3678   -2.7905    1.2641 H   0  0  0  0  0  0  0  0  0  0  0  0
   -6.8569   -2.4406   -1.8695 H   0  0  0  0  0  0  0  0  0  0  0  0
   -3.8190    0.0660   -3.5880 H   0  0  0  0  0  0  0  0  0  0  0  0
   -5.8521   -1.3314   -3.8485 H   0  0  0  0  0  0  0  0  0  0  0  0
    0.4980    4.9094    0.1600 H   0  0  0  0  0  0  0  0  0  0  0  0
    4.9715    0.8246   -2.1417 H   0  0  0  0  0  0  0  0  0  0  0  0
    3.2838    0.3715   -2.1680 H   0  0  0  0  0  0  0  0  0  0  0  0
    1.6295    1.6281   -0.9519 H   0  0  0  0  0  0  0  0  0  0  0  0
    5.1515    0.0385    0.2457 H   0  0  0  0  0  0  0  0  0  0  0  0
    3.4512   -0.4391    0.2097 H   0  0  0  0  0  0  0  0  0  0  0  0
    2.7912    5.5075    0.5528 H   0  0  0  0  0  0  0  0  0  0  0  0
    5.7637    2.7527   -0.8382 H   0  0  0  0  0  0  0  0  0  0  0  0
    3.9877   -1.9505   -1.5933 H   0  0  0  0  0  0  0  0  0  0  0  0
    5.1556    4.9522    0.1056 H   0  0  0  0  0  0  0  0  0  0  0  0
    5.7720   -2.2320    0.7465 H   0  0  0  0  0  0  0  0  0  0  0  0
    4.0913   -2.7474    0.6846 H   0  0  0  0  0  0  0  0  0  0  0  0
    4.6347   -4.3195   -1.1763 H   0  0  0  0  0  0  0  0  0  0  0  0
    6.3349   -3.7847   -1.1234 H   0  0  0  0  0  0  0  0  0  0  0  0
    5.2778   -6.5413   -0.5773 H   0  0  0  0  0  0  0  0  0  0  0  0
    6.9950   -6.0203   -0.5496 H   0  0  0  0  0  0  0  0  0  0  0  0
    6.2591   -6.7627    0.8868 H   0  0  0  0  0  0  0  0  0  0  0  0
  1 17  1  0  0  0  0
  2 34  1  0  0  0  0
  2 35  1  0  0  0  0
  3 12  2  0  0  0  0
  3 21  1  0  0  0  0
  4 16  1  0  0  0  0
  4 21  2  0  0  0  0
  5 21  1  0  0  0  0
  5 25  1  0  0  0  0
  5 48  1  0  0  0  0
  6 29  1  0  0  0  0
  6 33  1  0  0  0  0
  6 56  1  0  0  0  0
  7  8  1  0  0  0  0
  7  9  1  0  0  0  0
  7 13  1  0  0  0  0
  7 36  1  0  0  0  0
  8 10  1  0  0  0  0
  8 37  1  0  0  0  0
  8 38  1  0  0  0  0
  9 11  1  0  0  0  0
  9 14  2  0  0  0  0
 10 12  1  0  0  0  0
 10 16  2  0  0  0  0
 11 12  1  0  0  0  0
 11 15  2  0  0  0  0
 13 17  1  0  0  0  0
 13 18  2  0  0  0  0
 14 19  1  0  0  0  0
 14 39  1  0  0  0  0
 15 20  1  0  0  0  0
 15 40  1  0  0  0  0
 16 41  1  0  0  0  0
 17 22  2  0  0  0  0
 18 23  1  0  0  0  0
 18 42  1  0  0  0  0
 19 20  2  0  0  0  0
 19 43  1  0  0  0  0
 20 44  1  0  0  0  0
 22 24  1  0  0  0  0
 22 45  1  0  0  0  0
 23 24  2  0  0  0  0
 23 46  1  0  0  0  0
 24 47  1  0  0  0  0
 25 28  1  0  0  0  0
 25 30  2  0  0  0  0
 26 27  1  0  0  0  0
 26 29  1  0  0  0  0
 26 49  1  0  0  0  0
 26 50  1  0  0  0  0
 27 28  2  0  0  0  0
 27 31  1  0  0  0  0
 28 51  1  0  0  0  0
 29 52  1  0  0  0  0
 29 53  1  0  0  0  0
 30 32  1  0  0  0  0
 30 54  1  0  0  0  0
 31 32  2  0  0  0  0
 31 55  1  0  0  0  0
 32 57  1  0  0  0  0
 33 34  1  0  0  0  0
 33 58  1  0  0  0  0
 33 59  1  0  0  0  0
 34 60  1  0  0  0  0
 34 61  1  0  0  0  0
 35 62  1  0  0  0  0
 35 63  1  0  0  0  0
 35 64  1  0  0  0  0
M  END
> <PUBCHEM_COMPOUND_CID>
46834118

> <PUBCHEM_CONFORMER_RMSD>
1

> <PUBCHEM_CONFORMER_DIVERSEORDER>
1
84
25
191
106
23
205
189
169
203
160
123
59
217
71
26
104
93
199
64
243
238
151
173
79
102
214
184
240
74
165
159
129
134
222
55
135
211
44
180
119
73
231
230
116
110
36
88
246
57
126
35
98
38
198
122
200
61
121
80
202
179
67
97
213
50
226
235
181
96
113
234
66
49
100
250
176
94
52
219
131
237
42
225
33
89
43
204
111
91
147
127
51
48
150
215
62
6
21
77
172
149
209
45
56
13
39
136
177
242
146
70
164
83
156
241
220
195
22
40
32
30
18
196
72
178
197
132
140
207
193
76
157
114
115
87
227
120
155
194
171
232
81
142
82
60
20
112
224
31
103
221
162
141
228
15
58
138
90
3
12
208
54
233
161
245
99
248
69
148
210
107
185
65
8
7
229
92
144
101
153
137
27
128
170
145
249
5
130
139
133
166
29
109
239
24
174
201
190
46
168
216
236
247
118
53
68
251
63
75
17
86
28
244
167
206
47
37
78
124
4
117
252
192
108
143
125
154
19
163
223
183
188
152
10
11
34
2
218
41
105
85
175
16
182
212
14
158
9
186
187
95

> <PUBCHEM_MMFF94_PARTIAL_CHARGES>
49
1 -0.19
10 -0.14
12 0.31
13 -0.14
14 -0.15
15 -0.15
16 0.16
17 0.19
18 -0.15
19 -0.15
2 -0.56
20 -0.15
21 0.72
22 -0.15
23 -0.15
24 -0.15
25 0.1
26 0.14
27 -0.14
28 -0.15
29 0.27
3 -0.62
30 -0.15
31 -0.15
32 -0.15
33 0.27
34 0.28
35 0.28
39 0.15
4 -0.62
40 0.15
41 0.15
42 0.15
43 0.15
44 0.15
45 0.15
46 0.15
47 0.15
48 0.4
5 -0.6
51 0.15
54 0.15
55 0.15
56 0.36
57 0.15
6 -0.9
7 0.29
8 0.14
9 -0.14

> <PUBCHEM_EFFECTIVE_ROTOR_COUNT>
9.4

> <PUBCHEM_PHARMACOPHORE_FEATURES>
11
1 2 acceptor
1 3 acceptor
1 5 donor
1 6 cation
1 6 donor
4 3 4 5 21 cation
6 13 17 18 22 23 24 rings
6 25 27 28 30 31 32 rings
6 3 4 10 12 16 21 rings
6 7 8 9 10 11 12 rings
6 9 11 14 15 19 20 rings

> <PUBCHEM_HEAVY_ATOM_COUNT>
35

> <PUBCHEM_ATOM_DEF_STEREO_COUNT>
1

> <PUBCHEM_ATOM_UDEF_STEREO_COUNT>
0

> <PUBCHEM_BOND_DEF_STEREO_COUNT>
0

> <PUBCHEM_BOND_UDEF_STEREO_COUNT>
0

> <PUBCHEM_ISOTOPIC_ATOM_COUNT>
0

> <PUBCHEM_COMPONENT_COUNT>
1

> <PUBCHEM_CACTVS_TAUTO_COUNT>
3

> <PUBCHEM_CONFORMER_ID>
02CAA1C600000001

> <PUBCHEM_MMFF94_ENERGY>
99.5739

> <PUBCHEM_FEATURE_SELFOVERLAP>
55.87

> <PUBCHEM_SHAPE_FINGERPRINT>
10165383 225 17898279766280049927
105312 117 17461419593923064805
10622 236 18343017757605832964
10653451 467 17178856224902477187
10693767 8 18200301256222750479
1100329 8 18193289485451187216
11135609 149 18338502089258004740
11135926 11 18191601954567941044
11513181 2 18201171978862777972
15320467 1 18337405919663138034
15361156 5 17841750509482951316
15721738 15 18261104184445150822
16628084 112 18337681832414886425
19311894 1 17978231552524741540
19315092 285 17704069621013974280
19958102 18 18188203333644807653
20775438 99 17981863535288949911
21458453 9 11023545895217926285
23536364 44 18335972070289721727
23569914 152 18050820275351601533
3388396 114 18340210790436290956
3729539 64 18336543932311006775
3882209 13 18264751200527402082
4015057 19 18334865978466963626
4173938 306 18049980479964489688
45266715 3 18266167529884835660
54131252 217 17338674539494052127
6058803 2 18198644180378230440
6669772 16 18121774195125994342

> <PUBCHEM_SHAPE_MULTIPOLES>
687.22
14.46
7.62
1.86
3.36
3.26
1.13
14.19
7.24
17.2
-1.13
-3.24
0.65
-1.88

> <PUBCHEM_SHAPE_SELFOVERLAP>
1495.476

> <PUBCHEM_SHAPE_VOLUME>
374.7

> <PUBCHEM_COORDINATE_TYPE>
2
5
10

$$$$
53252276
  -OEChem-11282412143D

 46 49  0     1  0  0  0  0  0999 V2000
    1.5055    3.0719    0.1476 F   0  0  0  0  0  0  0  0  0  0  0  0
   -4.0733    1.2921    0.1810 O   0  0  0  0  0  0  0  0  0  0  0  0
    2.2649    0.4789   -0.2631 N   0  0  0  0  0  0  0  0  0  0  0  0
    4.2766   -0.0237   -2.2691 N   0  0  0  0  0  0  0  0  0  0  0  0
    0.0277   -0.2528   -0.2539 N   0  0  0  0  0  0  0  0  0  0  0  0
   -2.8502    3.2827    0.4024 N   0  0  0  0  0  0  0  0  0  0  0  0
   -3.2068   -2.9363    0.1435 N   0  0  0  0  0  0  0  0  0  0  0  0
   -3.8619   -2.4519   -0.9254 N   0  0  0  0  0  0  0  0  0  0  0  0
    2.7729   -0.8637   -0.4816 C   0  0  1  0  0  0  0  0  0  0  0  0
    4.2017   -0.8419   -1.0579 C   0  0  2  0  0  0  0  0  0  0  0  0
    2.7186   -1.6459    0.8361 C   0  0  0  0  0  0  0  0  0  0  0  0
    5.2412   -0.3617   -0.0358 C   0  0  0  0  0  0  0  0  0  0  0  0
    3.7621   -1.1723    1.8485 C   0  0  0  0  0  0  0  0  0  0  0  0
    5.1675   -1.1732    1.2560 C   0  0  0  0  0  0  0  0  0  0  0  0
    0.9209    0.7736   -0.1528 C   0  0  0  0  0  0  0  0  0  0  0  0
   -0.7610    2.3808    0.1648 C   0  0  0  0  0  0  0  0  0  0  0  0
    0.5842    2.1062    0.0556 C   0  0  0  0  0  0  0  0  0  0  0  0
   -1.6900    1.3512    0.0651 C   0  0  0  0  0  0  0  0  0  0  0  0
   -1.2830    0.0579   -0.1416 C   0  0  0  0  0  0  0  0  0  0  0  0
   -1.4537    3.6804    0.3873 C   0  0  0  0  0  0  0  0  0  0  0  0
   -3.0303    1.9175    0.2156 C   0  0  0  0  0  0  0  0  0  0  0  0
   -2.1953   -1.0416   -0.2539 C   0  0  0  0  0  0  0  0  0  0  0  0
   -2.1995   -2.1295    0.5847 C   0  0  0  0  0  0  0  0  0  0  0  0
   -3.2395   -1.2944   -1.1635 C   0  0  0  0  0  0  0  0  0  0  0  0
   -3.5991   -4.2043    0.7103 C   0  0  0  0  0  0  0  0  0  0  0  0
    2.1339   -1.3727   -1.2165 H   0  0  0  0  0  0  0  0  0  0  0  0
    4.4635   -1.8707   -1.3399 H   0  0  0  0  0  0  0  0  0  0  0  0
    1.7259   -1.5964    1.2971 H   0  0  0  0  0  0  0  0  0  0  0  0
    2.9033   -2.7063    0.6195 H   0  0  0  0  0  0  0  0  0  0  0  0
    6.2507   -0.4530   -0.4561 H   0  0  0  0  0  0  0  0  0  0  0  0
    5.0958    0.7010    0.1959 H   0  0  0  0  0  0  0  0  0  0  0  0
    3.5111   -0.1624    2.1948 H   0  0  0  0  0  0  0  0  0  0  0  0
    3.7369   -1.8230    2.7300 H   0  0  0  0  0  0  0  0  0  0  0  0
    5.8756   -0.7664    1.9868 H   0  0  0  0  0  0  0  0  0  0  0  0
    5.4767   -2.2063    1.0544 H   0  0  0  0  0  0  0  0  0  0  0  0
    2.9154    1.1777    0.0802 H   0  0  0  0  0  0  0  0  0  0  0  0
    5.2095   -0.0927   -2.6734 H   0  0  0  0  0  0  0  0  0  0  0  0
    3.6306   -0.3873   -2.9684 H   0  0  0  0  0  0  0  0  0  0  0  0
   -1.2044    4.1277    1.3527 H   0  0  0  0  0  0  0  0  0  0  0  0
   -1.2969    4.3842   -0.4338 H   0  0  0  0  0  0  0  0  0  0  0  0
   -3.6170    3.9344    0.5361 H   0  0  0  0  0  0  0  0  0  0  0  0
   -1.5867   -2.3922    1.4371 H   0  0  0  0  0  0  0  0  0  0  0  0
   -3.5746   -0.6880   -1.9933 H   0  0  0  0  0  0  0  0  0  0  0  0
   -2.9595   -4.4357    1.5656 H   0  0  0  0  0  0  0  0  0  0  0  0
   -3.4879   -4.9735   -0.0580 H   0  0  0  0  0  0  0  0  0  0  0  0
   -4.6407   -4.1295    1.0324 H   0  0  0  0  0  0  0  0  0  0  0  0
  1 17  1  0  0  0  0
  2 21  2  0  0  0  0
  3  9  1  0  0  0  0
  3 15  1  0  0  0  0
  3 36  1  0  0  0  0
  4 10  1  0  0  0  0
  4 37  1  0  0  0  0
  4 38  1  0  0  0  0
  5 15  1  0  0  0  0
  5 19  2  0  0  0  0
  6 20  1  0  0  0  0
  6 21  1  0  0  0  0
  6 41  1  0  0  0  0
  7  8  1  0  0  0  0
  7 23  1  0  0  0  0
  7 25  1  0  0  0  0
  8 24  2  0  0  0  0
  9 10  1  0  0  0  0
  9 11  1  0  0  0  0
  9 26  1  0  0  0  0
 10 12  1  0  0  0  0
 10 27  1  0  0  0  0
 11 13  1  0  0  0  0
 11 28  1  0  0  0  0
 11 29  1  0  0  0  0
 12 14  1  0  0  0  0
 12 30  1  0  0  0  0
 12 31  1  0  0  0  0
 13 14  1  0  0  0  0
 13 32  1  0  0  0  0
 13 33  1  0  0  0  0
 14 34  1  0  0  0  0
 14 35  1  0  0  0  0
 15 17  2  0  0  0  0
 16 17  1  0  0  0  0
 16 18  2  0  0  0  0
 16 20  1  0  0  0  0
 18 19  1  0  0  0  0
 18 21  1  0  0  0  0
 19 22  1  0  0  0  0
 20 39  1  0  0  0  0
 20 40  1  0  0  0  0
 22 23  2  0  0  0  0
 22 24  1  0  0  0  0
 23 42  1  0  0  0  0
 24 43  1  0  0  0  0
 25 44  1  0  0  0  0
 25 45  1  0  0  0  0
 25 46  1  0  0  0  0
M  END
> <PUBCHEM_COMPOUND_CID>
53252276

> <PUBCHEM_CONFORMER_RMSD>
0.8

> <PUBCHEM_CONFORMER_DIVERSEORDER>
1
21
43
44
28
30
19
35
11
29
40
36
41
3
42
45
27
33
12
38
34
39
4
9
24
23
7
6
25
31
37
14
8
26
10
16
5
13
15
18
32
20
22
17
2

> <PUBCHEM_MMFF94_PARTIAL_CHARGES>
27
1 -0.19
10 0.27
15 0.41
16 -0.14
17 0.19
18 0.09
19 0.36
2 -0.57
20 0.44
21 0.54
22 -0.05
23 -0.3
24 0.14
25 0.26
3 -0.87
36 0.4
37 0.36
38 0.36
4 -0.99
41 0.37
42 0.15
43 0.15
5 -0.62
6 -0.73
7 0.31
8 -0.71
9 0.37

> <PUBCHEM_EFFECTIVE_ROTOR_COUNT>
4.6

> <PUBCHEM_PHARMACOPHORE_FEATURES>
12
1 2 acceptor
1 3 cation
1 3 donor
1 4 cation
1 4 donor
1 5 acceptor
1 6 donor
1 8 acceptor
5 6 16 18 20 21 rings
5 7 8 22 23 24 rings
6 5 15 16 17 18 19 rings
6 9 10 11 12 13 14 rings

> <PUBCHEM_HEAVY_ATOM_COUNT>
25

> <PUBCHEM_ATOM_DEF_STEREO_COUNT>
2

> <PUBCHEM_ATOM_UDEF_STEREO_COUNT>
0

> <PUBCHEM_BOND_DEF_STEREO_COUNT>
0

> <PUBCHEM_BOND_UDEF_STEREO_COUNT>
0

> <PUBCHEM_ISOTOPIC_ATOM_COUNT>
0

> <PUBCHEM_COMPONENT_COUNT>
1

> <PUBCHEM_CACTVS_TAUTO_COUNT>
7

> <PUBCHEM_CONFORMER_ID>
032C90B400000001

> <PUBCHEM_MMFF94_ENERGY>
54.22

> <PUBCHEM_FEATURE_SELFOVERLAP>
60.991

> <PUBCHEM_SHAPE_FINGERPRINT>
10319926 262 18127105526216763082
10411042 1 18267586986580399503
10616163 171 18411983529321062926
1100329 8 18410852158026694945
11265709 11 18339356465616558107
114674 6 17323516766360804963
11578080 2 17750771347323619540
12236239 1 17896046438714769716
12363563 72 18339644558837516462
12403814 3 17532095990254606573
12553582 1 18410581720530547787
12788726 201 18335427863199468875
13052359 8 18337388223944145701
13140716 1 18341613754414376105
13583140 156 14189030954858077759
13782708 43 17561366167614793750
138480 1 16105014289434933083
14081887 123 18270949147161413786
14178342 30 18338506435865024274
14251757 5 18409172090952330831
14790565 3 17979925903917339289
14844126 61 18410002230621263835
14866123 147 18410856526003257763
15042514 8 18410862032018916521
15131766 46 16590027968203637516
15484559 13 14282701387376181684
15842332 3 17968385546246879606
16992727 255 18046600358404056109
19591789 44 16537080173787090445
20511986 3 17750225925046985496
21033648 29 17131818855483049058
21065201 7 18200314317170584326
21452121 199 18267292325710861104
23184049 29 18411414055079950409
23366157 5 18188491410134224556
23557571 272 18130223753629137138
23558518 356 18261682578726220849
23559900 14 18266724943493718977
23728640 28 18337391513799313651
3178227 256 18265907874165552001
5104073 3 18343015614797110328
5309563 4 18122911090439953555
58807428 26 17764593118753741769
8863177 126 17681281284830562555
9709674 26 18129102221482696830
9981440 41 17832990443078549281

> <PUBCHEM_SHAPE_MULTIPOLES>
471.46
9.67
4.45
1.21
9.55
0.11
-0.21
-5.74
-0.07
-6.94
1.12
1.48
-0.48
-0.89

> <PUBCHEM_SHAPE_SELFOVERLAP>
1033.032

> <PUBCHEM_SHAPE_VOLUME>
257.7

> <PUBCHEM_COORDINATE_TYPE>
2
5
10

$$$$
53380437
  -OEChem-11282412143D

 63 68  0     0  0  0  0  0  0999 V2000
   -4.5384   -1.8020   -0.5932 F   0  0  0  0  0  0  0  0  0  0  0  0
   -5.2600   -3.3990    0.9331 F   0  0  0  0  0  0  0  0  0  0  0  0
   -6.2993   -2.6089    2.6718 F   0  0  0  0  0  0  0  0  0  0  0  0
   -7.4179   -3.6040    1.1027 F   0  0  0  0  0  0  0  0  0  0  0  0
   -5.0197    0.3105   -3.1233 O   0  0  0  0  0  0  0  0  0  0  0  0
    0.2818    1.4952   -0.2644 N   0  0  0  0  0  0  0  0  0  0  0  0
    3.0243    1.2547    0.6665 N   0  0  0  0  0  0  0  0  0  0  0  0
   -3.7467    1.4338   -1.5156 N   0  0  0  0  0  0  0  0  0  0  0  0
    2.9217    0.3210    1.6277 N   0  0  0  0  0  0  0  0  0  0  0  0
    3.0650    3.6526    3.5605 N   0  0  0  0  0  0  0  0  0  0  0  0
    6.8487    0.3351   -0.8183 N   0  0  0  0  0  0  0  0  0  0  0  0
    7.6116   -3.6275   -0.6194 N   0  0  0  0  0  0  0  0  0  0  0  0
    8.3906   -1.4693   -1.3605 N   0  0  0  0  0  0  0  0  0  0  0  0
   -7.6483   -0.7057    0.9233 N   0  0  0  0  0  0  0  0  0  0  0  0
    2.0506    2.3300    0.5094 C   0  0  0  0  0  0  0  0  0  0  0  0
    0.6574    2.0161    1.0728 C   0  0  0  0  0  0  0  0  0  0  0  0
    1.3402    2.3532   -0.8514 C   0  0  0  0  0  0  0  0  0  0  0  0
   -1.0426    1.9757   -0.6505 C   0  0  0  0  0  0  0  0  0  0  0  0
   -1.3580    1.5507   -2.0914 C   0  0  0  0  0  0  0  0  0  0  0  0
   -2.1028    1.4323    0.3180 C   0  0  0  0  0  0  0  0  0  0  0  0
    2.6663    3.6293    0.9569 C   0  0  0  0  0  0  0  0  0  0  0  0
   -2.7795    1.9530   -2.4827 C   0  0  0  0  0  0  0  0  0  0  0  0
   -3.5053    1.8442   -0.1259 C   0  0  0  0  0  0  0  0  0  0  0  0
    4.1169    1.1023   -0.1354 C   0  0  0  0  0  0  0  0  0  0  0  0
    2.8917    3.6476    2.4131 C   0  0  0  0  0  0  0  0  0  0  0  0
    4.7750   -0.0084    0.3337 C   0  0  0  0  0  0  0  0  0  0  0  0
   -4.8171    0.6545   -1.9598 C   0  0  0  0  0  0  0  0  0  0  0  0
    3.9939   -0.4477    1.4194 C   0  0  0  0  0  0  0  0  0  0  0  0
    5.9840   -0.5235   -0.2299 C   0  0  0  0  0  0  0  0  0  0  0  0
   -5.7903    0.1840   -0.9662 C   0  0  0  0  0  0  0  0  0  0  0  0
    6.2893   -1.8831   -0.1847 C   0  0  0  0  0  0  0  0  0  0  0  0
   -5.6028   -1.0343   -0.3228 C   0  0  0  0  0  0  0  0  0  0  0  0
   -6.9056    0.9580   -0.6660 C   0  0  0  0  0  0  0  0  0  0  0  0
    7.4921   -2.2708   -0.7626 C   0  0  0  0  0  0  0  0  0  0  0  0
    5.6754   -3.0580    0.3197 C   0  0  0  0  0  0  0  0  0  0  0  0
   -6.5521   -1.4304    0.6055 C   0  0  0  0  0  0  0  0  0  0  0  0
   -7.7968    0.4727    0.2776 C   0  0  0  0  0  0  0  0  0  0  0  0
    7.9829   -0.1841   -1.3401 C   0  0  0  0  0  0  0  0  0  0  0  0
    6.5118   -4.1169    0.0374 C   0  0  0  0  0  0  0  0  0  0  0  0
   -6.3880   -2.7329    1.3148 C   0  0  0  0  0  0  0  0  0  0  0  0
    0.1131    2.9132    1.4032 H   0  0  0  0  0  0  0  0  0  0  0  0
    0.5811    1.2814    1.8808 H   0  0  0  0  0  0  0  0  0  0  0  0
    1.8666    1.8927   -1.6943 H   0  0  0  0  0  0  0  0  0  0  0  0
    1.0247    3.3549   -1.1749 H   0  0  0  0  0  0  0  0  0  0  0  0
   -1.0953    3.0741   -0.6043 H   0  0  0  0  0  0  0  0  0  0  0  0
   -0.6515    2.0042   -2.7965 H   0  0  0  0  0  0  0  0  0  0  0  0
   -1.2567    0.4613   -2.1880 H   0  0  0  0  0  0  0  0  0  0  0  0
   -2.0477    0.3358    0.3537 H   0  0  0  0  0  0  0  0  0  0  0  0
   -1.9452    1.7965    1.3392 H   0  0  0  0  0  0  0  0  0  0  0  0
    3.6063    3.8374    0.4316 H   0  0  0  0  0  0  0  0  0  0  0  0
    2.0031    4.4695    0.7125 H   0  0  0  0  0  0  0  0  0  0  0  0
   -3.0032    1.5887   -3.4904 H   0  0  0  0  0  0  0  0  0  0  0  0
   -2.8811    3.0446   -2.4976 H   0  0  0  0  0  0  0  0  0  0  0  0
   -3.6180    2.9341   -0.0835 H   0  0  0  0  0  0  0  0  0  0  0  0
   -4.2414    1.4165    0.5578 H   0  0  0  0  0  0  0  0  0  0  0  0
    4.3287    1.7800   -0.9524 H   0  0  0  0  0  0  0  0  0  0  0  0
    4.1553   -1.2804    2.0884 H   0  0  0  0  0  0  0  0  0  0  0  0
   -7.0814    1.9131   -1.1494 H   0  0  0  0  0  0  0  0  0  0  0  0
    4.7245   -3.1518    0.8239 H   0  0  0  0  0  0  0  0  0  0  0  0
   -8.6825    1.0384    0.5475 H   0  0  0  0  0  0  0  0  0  0  0  0
    8.6544    0.5300   -1.8044 H   0  0  0  0  0  0  0  0  0  0  0  0
    8.3899   -4.1821   -0.9481 H   0  0  0  0  0  0  0  0  0  0  0  0
    6.4205   -5.1742    0.2427 H   0  0  0  0  0  0  0  0  0  0  0  0
  1 32  1  0  0  0  0
  2 40  1  0  0  0  0
  3 40  1  0  0  0  0
  4 40  1  0  0  0  0
  5 27  2  0  0  0  0
  6 16  1  0  0  0  0
  6 17  1  0  0  0  0
  6 18  1  0  0  0  0
  7  9  1  0  0  0  0
  7 15  1  0  0  0  0
  7 24  1  0  0  0  0
  8 22  1  0  0  0  0
  8 23  1  0  0  0  0
  8 27  1  0  0  0  0
  9 28  2  0  0  0  0
 10 25  3  0  0  0  0
 11 29  1  0  0  0  0
 11 38  2  0  0  0  0
 12 34  1  0  0  0  0
 12 39  1  0  0  0  0
 12 62  1  0  0  0  0
 13 34  2  0  0  0  0
 13 38  1  0  0  0  0
 14 36  2  0  0  0  0
 14 37  1  0  0  0  0
 15 16  1  0  0  0  0
 15 17  1  0  0  0  0
 15 21  1  0  0  0  0
 16 41  1  0  0  0  0
 16 42  1  0  0  0  0
 17 43  1  0  0  0  0
 17 44  1  0  0  0  0
 18 19  1  0  0  0  0
 18 20  1  0  0  0  0
 18 45  1  0  0  0  0
 19 22  1  0  0  0  0
 19 46  1  0  0  0  0
 19 47  1  0  0  0  0
 20 23  1  0  0  0  0
 20 48  1  0  0  0  0
 20 49  1  0  0  0  0
 21 25  1  0  0  0  0
 21 50  1  0  0  0  0
 21 51  1  0  0  0  0
 22 52  1  0  0  0  0
 22 53  1  0  0  0  0
 23 54  1  0  0  0  0
 23 55  1  0  0  0  0
 24 26  2  0  0  0  0
 24 56  1  0  0  0  0
 26 28  1  0  0  0  0
 26 29  1  0  0  0  0
 27 30  1  0  0  0  0
 28 57  1  0  0  0  0
 29 31  2  0  0  0  0
 30 32  2  0  0  0  0
 30 33  1  0  0  0  0
 31 34  1  0  0  0  0
 31 35  1  0  0  0  0
 32 36  1  0  0  0  0
 33 37  2  0  0  0  0
 33 58  1  0  0  0  0
 35 39  2  0  0  0  0
 35 59  1  0  0  0  0
 36 40  1  0  0  0  0
 37 60  1  0  0  0  0
 38 61  1  0  0  0  0
 39 63  1  0  0  0  0
M  END
> <PUBCHEM_COMPOUND_CID>
53380437

> <PUBCHEM_CONFORMER_RMSD>
1.4

> <PUBCHEM_CONFORMER_DIVERSEORDER>
1
109
61
102
29
145
77
24
121
39
89
106
54
129
51
147
65
116
60
122
115
70
108
95
120
104
57
27
140
59
125
64
66
107
87
138
126
43
79
82
71
46
80
130
96
118
76
135
123
134
93
91
62
73
78
15
85
52
86
136
47
146
111
117
101
81
119
48
144
110
131
45
53
114
139
68
28
36
14
21
74
37
97
98
132
69
103
141
100
112
49
113
94
10
19
56
124
142
31
34
18
22
105
17
92
13
88
143
33
9
55
8
7
44
137
32
63
11
127
133
72
30
42
16
38
83
128
75
3
84
41
26
90
2
23
5
25
58
35
67
20
6
12
50
99
40
4

> <PUBCHEM_MMFF94_PARTIAL_CHARGES>
45
1 -0.19
10 -0.56
11 -0.62
12 0.03
13 -0.57
14 -0.62
15 0.09
16 0.21
17 0.21
18 0.27
2 -0.34
21 0.2
22 0.3
23 0.3
24 -0.3
25 0.36
26 -0.05
27 0.54
28 0.14
29 0.36
3 -0.34
30 0.09
32 0.19
33 -0.15
34 0.11
35 -0.15
36 0.17
37 0.16
38 0.47
39 -0.3
4 -0.34
40 1.16
5 -0.57
56 0.15
57 0.15
58 0.15
59 0.15
6 -0.69
60 0.15
61 0.15
62 0.27
63 0.15
7 0.48
8 -0.66
9 -0.71

> <PUBCHEM_EFFECTIVE_ROTOR_COUNT>
9

> <PUBCHEM_PHARMACOPHORE_FEATURES>
14
1 10 acceptor
1 12 donor
1 14 acceptor
1 5 acceptor
1 6 cation
1 9 acceptor
3 11 13 38 cation
3 12 13 34 cation
4 6 15 16 17 rings
5 12 31 34 35 39 rings
5 7 9 24 26 28 rings
6 11 13 29 31 34 38 rings
6 14 30 32 33 36 37 rings
6 8 18 19 20 22 23 rings

> <PUBCHEM_HEAVY_ATOM_COUNT>
40

> <PUBCHEM_ATOM_DEF_STEREO_COUNT>
0

> <PUBCHEM_ATOM_UDEF_STEREO_COUNT>
0

> <PUBCHEM_BOND_DEF_STEREO_COUNT>
0

> <PUBCHEM_BOND_UDEF_STEREO_COUNT>
0

> <PUBCHEM_ISOTOPIC_ATOM_COUNT>
0

> <PUBCHEM_COMPONENT_COUNT>
1

> <PUBCHEM_CACTVS_TAUTO_COUNT>
3

> <PUBCHEM_CONFORMER_ID>
032E855500000001

> <PUBCHEM_MMFF94_ENERGY>
84.0713

> <PUBCHEM_FEATURE_SELFOVERLAP>
71.328

> <PUBCHEM_SHAPE_FINGERPRINT>
10169797 241 18263066851502402882
10258705 36 18334584550598087259
10883706 17 18188770527785826058
11103572 155 18192432970113679015
11411753 3 18335965533123845509
117089 54 17824272707740441299
12047536 79 10663835053032618596
12342043 65 18409442596287662013
12539747 164 18195254303992531448
12655364 131 16630527302803475191
131258 43 18333735723811650748
13553643 44 17967538965217526395
13673619 4 18341326717513533124
13690498 29 18261386707003466189
13782708 43 18334850615167894116
14340393 91 18260269629138777520
15352257 5 18411980222190808014
15510800 12 18200884972179530998
15705408 1 15936692683116999077
17134984 74 18041278769581139026
19246450 95 17203053959352906865
19304144 158 8646475332734638465
195137 95 10952051134757494446
19841028 212 18262799558940765402
21814621 53 18342729750612392593
21867018 265 17822019708976349878
23729398 52 18271804692565060264
24771750 20 17972041598947117076
25269216 80 16081369674975549539
3610482 184 15068888708695745229
3862424 121 18334021579527564382
437795 70 17603868944341385739
439807 62 18337392647808005158
44249763 50 10159693625563103449
4435113 14 18260838115605782363
44880168 125 18341606071071727071
484989 97 18333735736479384082
5470011 282 18259988154794667596
6058803 2 16054033723332674556
9831232 110 18260543433372047164
999808 66 18412824677021849645

> <PUBCHEM_SHAPE_MULTIPOLES>
743.39
27.54
4.86
2.29
0.68
1.95
0.36
29.14
-2.57
-3.82
2.98
1.67
-1.44
6.23

> <PUBCHEM_SHAPE_SELFOVERLAP>
1649.891

> <PUBCHEM_SHAPE_VOLUME>
396.3

> <PUBCHEM_COORDINATE_TYPE>
2
5
10

$$$$
54759275
  -OEChem-11282412143D

 59 63  0     1  0  0  0  0  0999 V2000
   -1.4239   -1.0761    0.8515 O   0  0  0  0  0  0  0  0  0  0  0  0
   -1.9453    3.8181   -0.3931 O   0  0  0  0  0  0  0  0  0  0  0  0
   -5.7736   -2.3167   -0.9228 N   0  0  2  0  0  0  0  0  0  0  0  0
   -3.6600   -0.6209    0.5953 N   0  0  0  0  0  0  0  0  0  0  0  0
   -2.0893    1.0848    0.2758 N   0  0  0  0  0  0  0  0  0  0  0  0
    2.8015    3.7606   -0.0667 N   0  0  0  0  0  0  0  0  0  0  0  0
    2.8026   -0.2558    0.9316 N   0  0  0  0  0  0  0  0  0  0  0  0
    3.9776    1.7390    0.5134 N   0  0  0  0  0  0  0  0  0  0  0  0
   -6.0378   -0.6129    0.6461 C   0  0  2  0  0  0  0  0  0  0  0  0
   -5.5478   -2.0551    0.5044 C   0  0  2  0  0  0  0  0  0  0  0  0
   -7.1673   -0.4823   -0.3696 C   0  0  0  0  0  0  0  0  0  0  0  0
   -4.8078    0.2375    0.3115 C   0  0  0  0  0  0  0  0  0  0  0  0
   -4.0814   -1.9795    0.9072 C   0  0  0  0  0  0  0  0  0  0  0  0
   -7.0970   -1.7552   -1.2102 C   0  0  0  0  0  0  0  0  0  0  0  0
   -5.6975   -3.7317   -1.2607 C   0  0  0  0  0  0  0  0  0  0  0  0
   -2.3073   -0.2561    0.5943 C   0  0  0  0  0  0  0  0  0  0  0  0
   -0.8508    1.7672    0.1883 C   0  0  0  0  0  0  0  0  0  0  0  0
   -0.8029    3.1165   -0.1441 C   0  0  0  0  0  0  0  0  0  0  0  0
    0.3326    1.0793    0.4374 C   0  0  0  0  0  0  0  0  0  0  0  0
    1.5659    1.7482    0.3523 C   0  0  0  0  0  0  0  0  0  0  0  0
    0.4276    3.7748   -0.2267 C   0  0  0  0  0  0  0  0  0  0  0  0
    1.6273    3.1108    0.0175 C   0  0  0  0  0  0  0  0  0  0  0  0
    2.7849    1.1191    0.5890 C   0  0  0  0  0  0  0  0  0  0  0  0
   -2.4067    3.8449   -1.7419 C   0  0  0  0  0  0  0  0  0  0  0  0
    3.9127    3.0395    0.1858 C   0  0  0  0  0  0  0  0  0  0  0  0
    3.7431   -1.2746    0.7125 C   0  0  0  0  0  0  0  0  0  0  0  0
    4.5660   -1.2344   -0.4133 C   0  0  0  0  0  0  0  0  0  0  0  0
    3.8552   -2.3274    1.6209 C   0  0  0  0  0  0  0  0  0  0  0  0
    5.5005   -2.2468   -0.6306 C   0  0  0  0  0  0  0  0  0  0  0  0
    4.7900   -3.3396    1.4036 C   0  0  0  0  0  0  0  0  0  0  0  0
    5.6126   -3.2995    0.2777 C   0  0  0  0  0  0  0  0  0  0  0  0
    6.3438   -2.2052   -1.7837 C   0  0  0  0  0  0  0  0  0  0  0  0
    7.0527   -2.1702   -2.7523 C   0  0  0  0  0  0  0  0  0  0  0  0
   -6.3777   -0.4032    1.6668 H   0  0  0  0  0  0  0  0  0  0  0  0
   -6.1191   -2.7460    1.1367 H   0  0  0  0  0  0  0  0  0  0  0  0
   -7.0627    0.4169   -0.9861 H   0  0  0  0  0  0  0  0  0  0  0  0
   -8.1369   -0.4246    0.1379 H   0  0  0  0  0  0  0  0  0  0  0  0
   -4.7558    0.5298   -0.7431 H   0  0  0  0  0  0  0  0  0  0  0  0
   -4.7675    1.1402    0.9291 H   0  0  0  0  0  0  0  0  0  0  0  0
   -3.4375   -2.7109    0.4094 H   0  0  0  0  0  0  0  0  0  0  0  0
   -3.9693   -2.1101    1.9899 H   0  0  0  0  0  0  0  0  0  0  0  0
   -7.9019   -2.4357   -0.9035 H   0  0  0  0  0  0  0  0  0  0  0  0
   -7.2192   -1.5378   -2.2761 H   0  0  0  0  0  0  0  0  0  0  0  0
   -4.6942   -4.1244   -1.0661 H   0  0  0  0  0  0  0  0  0  0  0  0
   -5.8917   -3.8780   -2.3289 H   0  0  0  0  0  0  0  0  0  0  0  0
   -6.4168   -4.3356   -0.6960 H   0  0  0  0  0  0  0  0  0  0  0  0
   -2.8985    1.6634    0.0749 H   0  0  0  0  0  0  0  0  0  0  0  0
    0.3499    0.0311    0.6851 H   0  0  0  0  0  0  0  0  0  0  0  0
    0.4460    4.8320   -0.4873 H   0  0  0  0  0  0  0  0  0  0  0  0
    2.1160   -0.4929    1.6426 H   0  0  0  0  0  0  0  0  0  0  0  0
   -3.3434    4.4080   -1.7721 H   0  0  0  0  0  0  0  0  0  0  0  0
   -2.5965    2.8316   -2.1098 H   0  0  0  0  0  0  0  0  0  0  0  0
   -1.6765    4.3462   -2.3851 H   0  0  0  0  0  0  0  0  0  0  0  0
    4.8553    3.5685    0.1162 H   0  0  0  0  0  0  0  0  0  0  0  0
    4.4765   -0.4251   -1.1350 H   0  0  0  0  0  0  0  0  0  0  0  0
    3.2210   -2.3711    2.5027 H   0  0  0  0  0  0  0  0  0  0  0  0
    4.8774   -4.1590    2.1111 H   0  0  0  0  0  0  0  0  0  0  0  0
    6.3363   -4.0961    0.1224 H   0  0  0  0  0  0  0  0  0  0  0  0
    7.6814   -2.1391   -3.6114 H   0  0  0  0  0  0  0  0  0  0  0  0
  1 16  2  0  0  0  0
  2 18  1  0  0  0  0
  2 24  1  0  0  0  0
  3 10  1  0  0  0  0
  3 14  1  0  0  0  0
  3 15  1  0  0  0  0
  4 12  1  0  0  0  0
  4 13  1  0  0  0  0
  4 16  1  0  0  0  0
  5 16  1  0  0  0  0
  5 17  1  0  0  0  0
  5 47  1  0  0  0  0
  6 22  1  0  0  0  0
  6 25  2  0  0  0  0
  7 23  1  0  0  0  0
  7 26  1  0  0  0  0
  7 50  1  0  0  0  0
  8 23  2  0  0  0  0
  8 25  1  0  0  0  0
  9 10  1  0  0  0  0
  9 11  1  0  0  0  0
  9 12  1  0  0  0  0
  9 34  1  0  0  0  0
 10 13  1  0  0  0  0
 10 35  1  0  0  0  0
 11 14  1  0  0  0  0
 11 36  1  0  0  0  0
 11 37  1  0  0  0  0
 12 38  1  0  0  0  0
 12 39  1  0  0  0  0
 13 40  1  0  0  0  0
 13 41  1  0  0  0  0
 14 42  1  0  0  0  0
 14 43  1  0  0  0  0
 15 44  1  0  0  0  0
 15 45  1  0  0  0  0
 15 46  1  0  0  0  0
 17 18  2  0  0  0  0
 17 19  1  0  0  0  0
 18 21  1  0  0  0  0
 19 20  2  0  0  0  0
 19 48  1  0  0  0  0
 20 22  1  0  0  0  0
 20 23  1  0  0  0  0
 21 22  2  0  0  0  0
 21 49  1  0  0  0  0
 24 51  1  0  0  0  0
 24 52  1  0  0  0  0
 24 53  1  0  0  0  0
 25 54  1  0  0  0  0
 26 27  1  0  0  0  0
 26 28  2  0  0  0  0
 27 29  2  0  0  0  0
 27 55  1  0  0  0  0
 28 30  1  0  0  0  0
 28 56  1  0  0  0  0
 29 31  1  0  0  0  0
 29 32  1  0  0  0  0
 30 31  2  0  0  0  0
 30 57  1  0  0  0  0
 31 58  1  0  0  0  0
 32 33  3  0  0  0  0
 33 59  1  0  0  0  0
M  END
> <PUBCHEM_COMPOUND_CID>
54759275

> <PUBCHEM_CONFORMER_RMSD>
1.2

> <PUBCHEM_CONFORMER_DIVERSEORDER>
1
68
53
89
24
126
79
6
64
85
100
83
45
76
117
69
78
109
70
55
95
86
67
99
28
26
81
128
39
103
104
46
38
127
59
23
62
80
84
115
94
42
27
52
105
77
20
120
121
107
119
114
43
108
75
102
58
93
87
118
60
71
49
35
116
7
74
33
110
124
82
91
41
30
111
56
65
31
66
50
97
96
15
98
73
57
63
123
125
16
47
44
11
22
101
12
25
51
13
32
9
40
17
29
48
14
10
72
21
61
19
37
54
92
36
90
113
88
8
122
34
18
3
106
5
112
4
2

> <PUBCHEM_MMFF94_PARTIAL_CHARGES>
40
1 -0.57
10 0.27
12 0.3
13 0.3
14 0.27
15 0.27
16 0.69
17 0.12
18 0.08
19 -0.15
2 -0.36
21 -0.15
22 0.31
23 0.41
24 0.28
25 0.47
26 0.1
27 -0.15
28 -0.15
29 0.07
3 -0.81
30 -0.15
31 -0.15
32 -0.07
33 -0.18
4 -0.66
47 0.37
48 0.15
49 0.15
5 -0.55
50 0.4
54 0.15
55 0.15
56 0.15
57 0.15
58 0.15
59 0.18
6 -0.62
7 -0.6
8 -0.62

> <PUBCHEM_EFFECTIVE_ROTOR_COUNT>
7.2

> <PUBCHEM_PHARMACOPHORE_FEATURES>
13
1 1 acceptor
1 2 acceptor
1 3 cation
1 33 hydrophobe
1 5 donor
1 7 donor
3 6 8 25 cation
3 7 8 23 cation
5 3 9 10 11 14 rings
5 4 9 10 12 13 rings
6 17 18 19 20 21 22 rings
6 26 27 28 29 30 31 rings
6 6 8 20 22 23 25 rings

> <PUBCHEM_HEAVY_ATOM_COUNT>
33

> <PUBCHEM_ATOM_DEF_STEREO_COUNT>
2

> <PUBCHEM_ATOM_UDEF_STEREO_COUNT>
0

> <PUBCHEM_BOND_DEF_STEREO_COUNT>
0

> <PUBCHEM_BOND_UDEF_STEREO_COUNT>
0

> <PUBCHEM_ISOTOPIC_ATOM_COUNT>
0

> <PUBCHEM_COMPONENT_COUNT>
1

> <PUBCHEM_CACTVS_TAUTO_COUNT>
6

> <PUBCHEM_CONFORMER_ID>
03438F6B00000001

> <PUBCHEM_MMFF94_ENERGY>
122.9024

> <PUBCHEM_FEATURE_SELFOVERLAP>
66.566

> <PUBCHEM_SHAPE_FINGERPRINT>
10050765 1 18410291372257431416
10622 236 17842540006740765423
11409948 41 18053363665133416399
11719270 70 18120366816612827040
11991303 11 17608643912919418605
12107183 9 18269001895263826225
12147406 95 18412832391157666388
12202916 173 17825652611685829864
12422481 6 17418089910472161951
12522641 33 18266182919744960204
12522641 68 17256538938067015708
13533116 47 18270962448496099825
13540713 4 18267285587514530336
1361 2 18338230586984495139
13690498 29 18262526879297174932
13911852 28 18410569600475249145
14068700 675 18342740672212416586
14117953 113 18271805684321826895
14347332 77 18335979766259199128
14415361 349 18128257981278480454
14866123 147 18193558870564289297
14931854 50 17895767205574467802
15361156 5 18115040605782315801
15803439 3 16667998894800648892
17492 89 18337102389470453080
19246450 95 12173669988962043822
20775438 99 18191296285660754882
21279426 13 18187915171962932869
21307412 95 18051973611019043436
21703447 108 18336253609628184040
21781055 127 17346612859708265131
22311459 1 18265333000618265920
23559900 14 18337385063238567507
24771750 20 16957613577793491157
25269216 80 15068917424931593075
255183 451 18342747299616174420
3103668 31 17970054562286632397
4144715 1 18042127729885894883
44880168 125 17489021540416770942
5372103 7 15792878770350266694
57816373 69 17775280581965306303
6201460 15 17628060506524542271
6700243 42 17770519551405884622
7970288 3 18266736888025070842

> <PUBCHEM_SHAPE_MULTIPOLES>
637.5
19.1
5.98
1.5
10.18
3.84
0.8
-24.74
7.02
-2.5
1.33
-1.9
-1.16
0.53

> <PUBCHEM_SHAPE_SELFOVERLAP>
1394.558

> <PUBCHEM_SHAPE_VOLUME>
345.4

> <PUBCHEM_COORDINATE_TYPE>
2
5
10

$$$$
56839178
  -OEChem-11282412143D

 65 68  0     0  0  0  0  0  0999 V2000
    5.6348    1.7193    1.4782 Cl  0  0  0  0  0  0  0  0  0  0  0  0
    4.0685   -2.6065   -0.7261 S   0  0  0  0  0  0  0  0  0  0  0  0
    5.0863   -1.6180   -0.3931 O   0  0  0  0  0  0  0  0  0  0  0  0
    4.4306   -4.0180   -0.6992 O   0  0  0  0  0  0  0  0  0  0  0  0
   -5.0857    0.2111   -0.4875 N   0  0  0  0  0  0  0  0  0  0  0  0
   -6.4962   -1.9712    0.7798 N   0  0  0  0  0  0  0  0  0  0  0  0
    0.3468    3.5595   -0.0691 N   0  0  0  0  0  0  0  0  0  0  0  0
    3.4054   -2.2272   -2.2772 N   0  0  0  0  0  0  0  0  0  0  0  0
    3.2902   -0.0325    0.7036 N   0  0  0  0  0  0  0  0  0  0  0  0
    1.8060    1.7661    0.3126 N   0  0  0  0  0  0  0  0  0  0  0  0
    2.5345    4.0430    0.6172 N   0  0  0  0  0  0  0  0  0  0  0  0
   -6.4973   -0.0593   -0.7862 C   0  0  0  0  0  0  0  0  0  0  0  0
   -4.3943   -1.0291   -0.1149 C   0  0  0  0  0  0  0  0  0  0  0  0
   -7.1879   -0.7318    0.4053 C   0  0  0  0  0  0  0  0  0  0  0  0
   -5.0843   -1.7006    1.0774 C   0  0  0  0  0  0  0  0  0  0  0  0
   -4.4278    0.8506   -1.6252 C   0  0  0  0  0  0  0  0  0  0  0  0
   -7.1538   -2.6090    1.9186 C   0  0  0  0  0  0  0  0  0  0  0  0
   -3.1681    1.5659   -1.2149 C   0  0  0  0  0  0  0  0  0  0  0  0
   -1.9235    0.9979   -1.4872 C   0  0  0  0  0  0  0  0  0  0  0  0
   -3.2453    2.7961   -0.5619 C   0  0  0  0  0  0  0  0  0  0  0  0
   -0.7563    1.6601   -1.1070 C   0  0  0  0  0  0  0  0  0  0  0  0
   -2.0782    3.4584   -0.1815 C   0  0  0  0  0  0  0  0  0  0  0  0
   -0.8336    2.8903   -0.4541 C   0  0  0  0  0  0  0  0  0  0  0  0
    2.7129   -2.3748    0.3577 C   0  0  0  0  0  0  0  0  0  0  0  0
    2.4619   -1.1386    0.9531 C   0  0  0  0  0  0  0  0  0  0  0  0
    1.6247    3.1006    0.3049 C   0  0  0  0  0  0  0  0  0  0  0  0
    1.8755   -3.4587    0.6214 C   0  0  0  0  0  0  0  0  0  0  0  0
    1.3737   -0.9864    1.8124 C   0  0  0  0  0  0  0  0  0  0  0  0
    3.0410    1.3617    0.6760 C   0  0  0  0  0  0  0  0  0  0  0  0
    0.7870   -3.3065    1.4805 C   0  0  0  0  0  0  0  0  0  0  0  0
    2.2608   -3.0439   -2.7545 C   0  0  0  0  0  0  0  0  0  0  0  0
    3.2477   -0.7922   -2.6252 C   0  0  0  0  0  0  0  0  0  0  0  0
    0.5363   -2.0704    2.0760 C   0  0  0  0  0  0  0  0  0  0  0  0
    4.0608    2.2255    1.0189 C   0  0  0  0  0  0  0  0  0  0  0  0
    3.7471    3.5685    0.9711 C   0  0  0  0  0  0  0  0  0  0  0  0
   -7.0207    0.8814   -0.9967 H   0  0  0  0  0  0  0  0  0  0  0  0
   -6.5935   -0.6943   -1.6774 H   0  0  0  0  0  0  0  0  0  0  0  0
   -4.3587   -1.7299   -0.9602 H   0  0  0  0  0  0  0  0  0  0  0  0
   -3.3601   -0.8233    0.1826 H   0  0  0  0  0  0  0  0  0  0  0  0
   -7.2255   -0.0330    1.2522 H   0  0  0  0  0  0  0  0  0  0  0  0
   -8.2233   -0.9565    0.1217 H   0  0  0  0  0  0  0  0  0  0  0  0
   -4.5641   -2.6423    1.2913 H   0  0  0  0  0  0  0  0  0  0  0  0
   -4.9863   -1.0638    1.9672 H   0  0  0  0  0  0  0  0  0  0  0  0
   -5.0873    1.6105   -2.0681 H   0  0  0  0  0  0  0  0  0  0  0  0
   -4.2294    0.1365   -2.4362 H   0  0  0  0  0  0  0  0  0  0  0  0
   -6.6615   -3.5561    2.1656 H   0  0  0  0  0  0  0  0  0  0  0  0
   -8.1947   -2.8499    1.6758 H   0  0  0  0  0  0  0  0  0  0  0  0
   -7.1463   -1.9734    2.8116 H   0  0  0  0  0  0  0  0  0  0  0  0
   -1.8491    0.0439   -2.0026 H   0  0  0  0  0  0  0  0  0  0  0  0
   -4.2091    3.2486   -0.3436 H   0  0  0  0  0  0  0  0  0  0  0  0
    0.1891    1.2016   -1.3771 H   0  0  0  0  0  0  0  0  0  0  0  0
   -2.1519    4.4159    0.3277 H   0  0  0  0  0  0  0  0  0  0  0  0
    0.2334    4.5584    0.0751 H   0  0  0  0  0  0  0  0  0  0  0  0
    2.0447   -4.4307    0.1669 H   0  0  0  0  0  0  0  0  0  0  0  0
    4.2353   -0.2565    0.4155 H   0  0  0  0  0  0  0  0  0  0  0  0
    1.1628   -0.0390    2.3010 H   0  0  0  0  0  0  0  0  0  0  0  0
    0.1342   -4.1500    1.6852 H   0  0  0  0  0  0  0  0  0  0  0  0
    1.3220   -2.6989   -2.3125 H   0  0  0  0  0  0  0  0  0  0  0  0
    2.1871   -2.9657   -3.8440 H   0  0  0  0  0  0  0  0  0  0  0  0
    2.4139   -4.1001   -2.5168 H   0  0  0  0  0  0  0  0  0  0  0  0
    3.1160   -0.6908   -3.7074 H   0  0  0  0  0  0  0  0  0  0  0  0
    2.3747   -0.3647   -2.1252 H   0  0  0  0  0  0  0  0  0  0  0  0
    4.1430   -0.2252   -2.3573 H   0  0  0  0  0  0  0  0  0  0  0  0
   -0.3099   -1.9526    2.7466 H   0  0  0  0  0  0  0  0  0  0  0  0
    4.4755    4.3338    1.2209 H   0  0  0  0  0  0  0  0  0  0  0  0
  1 34  1  0  0  0  0
  2  3  2  0  0  0  0
  2  4  2  0  0  0  0
  2  8  1  0  0  0  0
  2 24  1  0  0  0  0
  5 12  1  0  0  0  0
  5 13  1  0  0  0  0
  5 16  1  0  0  0  0
  6 14  1  0  0  0  0
  6 15  1  0  0  0  0
  6 17  1  0  0  0  0
  7 23  1  0  0  0  0
  7 26  1  0  0  0  0
  7 53  1  0  0  0  0
  8 31  1  0  0  0  0
  8 32  1  0  0  0  0
  9 25  1  0  0  0  0
  9 29  1  0  0  0  0
  9 55  1  0  0  0  0
 10 26  1  0  0  0  0
 10 29  2  0  0  0  0
 11 26  2  0  0  0  0
 11 35  1  0  0  0  0
 12 14  1  0  0  0  0
 12 36  1  0  0  0  0
 12 37  1  0  0  0  0
 13 15  1  0  0  0  0
 13 38  1  0  0  0  0
 13 39  1  0  0  0  0
 14 40  1  0  0  0  0
 14 41  1  0  0  0  0
 15 42  1  0  0  0  0
 15 43  1  0  0  0  0
 16 18  1  0  0  0  0
 16 44  1  0  0  0  0
 16 45  1  0  0  0  0
 17 46  1  0  0  0  0
 17 47  1  0  0  0  0
 17 48  1  0  0  0  0
 18 19  2  0  0  0  0
 18 20  1  0  0  0  0
 19 21  1  0  0  0  0
 19 49  1  0  0  0  0
 20 22  2  0  0  0  0
 20 50  1  0  0  0  0
 21 23  2  0  0  0  0
 21 51  1  0  0  0  0
 22 23  1  0  0  0  0
 22 52  1  0  0  0  0
 24 25  1  0  0  0  0
 24 27  2  0  0  0  0
 25 28  2  0  0  0  0
 27 30  1  0  0  0  0
 27 54  1  0  0  0  0
 28 33  1  0  0  0  0
 28 56  1  0  0  0  0
 29 34  1  0  0  0  0
 30 33  2  0  0  0  0
 30 57  1  0  0  0  0
 31 58  1  0  0  0  0
 31 59  1  0  0  0  0
 31 60  1  0  0  0  0
 32 61  1  0  0  0  0
 32 62  1  0  0  0  0
 32 63  1  0  0  0  0
 33 64  1  0  0  0  0
 34 35  2  0  0  0  0
 35 65  1  0  0  0  0
M  END
> <PUBCHEM_COMPOUND_CID>
56839178

> <PUBCHEM_CONFORMER_RMSD>
1.2

> <PUBCHEM_CONFORMER_DIVERSEORDER>
1
58
69
41
129
38
66
90
138
88
134
99
125
65
86
21
137
102
139
100
96
97
94
20
72
101
53
84
63
33
103
117
64
70
132
27
104
110
74
93
81
75
73
131
122
52
45
55
114
106
126
24
43
47
59
127
67
25
36
71
95
91
78
39
4
141
26
112
61
124
133
15
123
108
62
54
140
16
57
113
32
46
7
87
77
37
119
22
105
120
116
80
111
82
10
68
109
60
128
115
135
130
50
13
30
42
83
12
79
29
76
14
85
92
35
40
98
49
28
31
121
23
18
19
89
51
34
2
8
136
17
11
6
107
5
56
118
48
3
44
9

> <PUBCHEM_MMFF94_PARTIAL_CHARGES>
46
1 -0.18
10 -0.62
11 -0.62
12 0.27
13 0.27
14 0.27
15 0.27
16 0.41
17 0.27
18 -0.14
19 -0.15
2 1.45
20 -0.15
21 -0.15
22 -0.15
23 0.1
24 -0.01
25 0.1
26 0.72
27 -0.15
28 -0.15
29 0.41
3 -0.65
30 -0.15
31 0.36
32 0.36
33 -0.15
34 0.18
35 0.16
4 -0.65
49 0.15
5 -0.81
50 0.15
51 0.15
52 0.15
53 0.4
54 0.15
55 0.4
56 0.15
57 0.15
6 -0.81
64 0.15
65 0.15
7 -0.6
8 -0.85
9 -0.6

> <PUBCHEM_EFFECTIVE_ROTOR_COUNT>
9.2

> <PUBCHEM_PHARMACOPHORE_FEATURES>
11
1 3 acceptor
1 4 acceptor
1 5 cation
1 6 cation
1 7 donor
1 9 donor
4 7 10 11 26 cation
6 10 11 26 29 34 35 rings
6 18 19 20 21 22 23 rings
6 24 25 27 28 30 33 rings
6 5 6 12 13 14 15 rings

> <PUBCHEM_HEAVY_ATOM_COUNT>
35

> <PUBCHEM_ATOM_DEF_STEREO_COUNT>
0

> <PUBCHEM_ATOM_UDEF_STEREO_COUNT>
0

> <PUBCHEM_BOND_DEF_STEREO_COUNT>
0

> <PUBCHEM_BOND_UDEF_STEREO_COUNT>
0

> <PUBCHEM_ISOTOPIC_ATOM_COUNT>
0

> <PUBCHEM_COMPONENT_COUNT>
1

> <PUBCHEM_CACTVS_TAUTO_COUNT>
9

> <PUBCHEM_CONFORMER_ID>
03634C0A00000001

> <PUBCHEM_MMFF94_ENERGY>
106.3775

> <PUBCHEM_FEATURE_SELFOVERLAP>
55.842

> <PUBCHEM_SHAPE_FINGERPRINT>
10169797 241 18334852822881493722
10864689 126 18187357676565372875
11093857 5 18114181917613668003
117089 54 18126853689780999623
11828532 37 18187938312951896267
12156800 1 17607825094884621964
131258 38 17387108907123318346
13402501 40 18041552659012466281
13751561 76 18410578413553416439
14068700 686 18189037828605932765
15721738 15 16962346528715886653
15721738 202 18060700567778367496
15927050 60 17109600216335392005
17909252 39 18337115566118913339
20028762 73 18196078074303032845
21133410 38 18054509377423824695
21197605 99 18118962735509526331
238918 7 18119244206112057536
354706 132 17750804233829422516
3737641 26 18410570695834568457
394071 54 18341896320708119795
437795 51 18411141376713136164
437795 96 18042686290156204915
4461854 278 18129938000849520094
46194498 28 18272933791224726334
484989 97 18335141960828809834
6376802 90 17679276630251217949
6823239 73 18338508625897126259
86090 222 18187087303709351041

> <PUBCHEM_SHAPE_MULTIPOLES>
679.4
15.15
5.94
2.13
27.26
1.11
0.93
-7.13
-2.73
-5.16
-0.54
-1.07
-1.65
5.16

> <PUBCHEM_SHAPE_SELFOVERLAP>
1419.329

> <PUBCHEM_SHAPE_VOLUME>
387.7

> <PUBCHEM_COORDINATE_TYPE>
2
5
10

$$$$
72703790
  -OEChem-11282412143D

 66 69  0     1  0  0  0  0  0999 V2000
   -2.3697    2.8934    0.9462 Cl  0  0  0  0  0  0  0  0  0  0  0  0
   -2.6904    0.0452   -1.8536 O   0  0  0  0  0  0  0  0  0  0  0  0
    4.8180    1.0530   -0.7718 O   0  0  0  0  0  0  0  0  0  0  0  0
    0.6512    1.7463    0.2856 N   0  0  0  0  0  0  0  0  0  0  0  0
   -1.5586   -1.2676   -0.2900 N   0  0  0  0  0  0  0  0  0  0  0  0
    2.4599    2.8438   -0.3959 N   0  0  0  0  0  0  0  0  0  0  0  0
    2.6443    0.4728   -0.0711 N   0  0  0  0  0  0  0  0  0  0  0  0
   -7.2437   -1.3198   -0.0107 N   0  0  0  0  0  0  0  0  0  0  0  0
    5.2967   -3.8428   -0.0442 N   0  0  0  0  0  0  0  0  0  0  0  0
   -0.2101    0.5667    0.7168 C   0  0  2  0  0  0  0  0  0  0  0  0
    0.3479   -0.0350    2.0192 C   0  0  0  0  0  0  0  0  0  0  0  0
   -0.3352   -0.4680   -0.4163 C   0  0  0  0  0  0  0  0  0  0  0  0
   -0.4760   -1.1846    2.5987 C   0  0  0  0  0  0  0  0  0  0  0  0
   -0.4824   -2.4308    1.7160 C   0  0  0  0  0  0  0  0  0  0  0  0
   -1.5638   -2.4064    0.6372 C   0  0  0  0  0  0  0  0  0  0  0  0
    0.2665    3.0586    0.1842 C   0  0  0  0  0  0  0  0  0  0  0  0
    1.9688    1.6688   -0.0712 C   0  0  0  0  0  0  0  0  0  0  0  0
   -2.6646   -0.9036   -1.0680 C   0  0  0  0  0  0  0  0  0  0  0  0
    1.4128    3.7233   -0.2427 C   0  0  0  0  0  0  0  0  0  0  0  0
   -0.9487    3.7017    0.4221 C   0  0  0  0  0  0  0  0  0  0  0  0
    1.3621    5.1120   -0.4499 C   0  0  0  0  0  0  0  0  0  0  0  0
   -3.8870   -1.7254   -0.9412 C   0  0  0  0  0  0  0  0  0  0  0  0
   -0.9811    5.0840    0.2108 C   0  0  0  0  0  0  0  0  0  0  0  0
    0.1526    5.7787   -0.2175 C   0  0  0  0  0  0  0  0  0  0  0  0
    3.9944    0.2198   -0.4093 C   0  0  0  0  0  0  0  0  0  0  0  0
   -5.0776   -1.1457   -1.1347 C   0  0  0  0  0  0  0  0  0  0  0  0
   -6.3772   -1.8867   -1.0389 C   0  0  0  0  0  0  0  0  0  0  0  0
    4.4462   -1.1908   -0.2829 C   0  0  0  0  0  0  0  0  0  0  0  0
    3.5326   -2.2310   -0.4113 C   0  0  0  0  0  0  0  0  0  0  0  0
    5.7847   -1.4750   -0.0353 C   0  0  0  0  0  0  0  0  0  0  0  0
   -8.6424   -1.6642   -0.2694 C   0  0  0  0  0  0  0  0  0  0  0  0
   -6.8417   -1.7884    1.3162 C   0  0  0  0  0  0  0  0  0  0  0  0
    4.0042   -3.5277   -0.2845 C   0  0  0  0  0  0  0  0  0  0  0  0
    6.1555   -2.8054    0.0745 C   0  0  0  0  0  0  0  0  0  0  0  0
    3.0518   -4.6691   -0.4172 C   0  0  0  0  0  0  0  0  0  0  0  0
   -1.1983    0.9230    0.9402 H   0  0  0  0  0  0  0  0  0  0  0  0
    0.3734    0.7643    2.7732 H   0  0  0  0  0  0  0  0  0  0  0  0
    1.3814   -0.3775    1.9444 H   0  0  0  0  0  0  0  0  0  0  0  0
   -0.3631    0.0569   -1.3790 H   0  0  0  0  0  0  0  0  0  0  0  0
    0.4988   -1.1654   -0.4839 H   0  0  0  0  0  0  0  0  0  0  0  0
   -1.4995   -0.8527    2.8097 H   0  0  0  0  0  0  0  0  0  0  0  0
   -0.0321   -1.4534    3.5657 H   0  0  0  0  0  0  0  0  0  0  0  0
    0.5076   -2.5956    1.2756 H   0  0  0  0  0  0  0  0  0  0  0  0
   -0.6770   -3.3032    2.3529 H   0  0  0  0  0  0  0  0  0  0  0  0
   -1.4770   -3.3111    0.0235 H   0  0  0  0  0  0  0  0  0  0  0  0
   -2.5408   -2.4470    1.1321 H   0  0  0  0  0  0  0  0  0  0  0  0
    2.1100   -0.3290    0.2215 H   0  0  0  0  0  0  0  0  0  0  0  0
    2.2374    5.6607   -0.7826 H   0  0  0  0  0  0  0  0  0  0  0  0
   -3.8082   -2.7795   -0.7059 H   0  0  0  0  0  0  0  0  0  0  0  0
   -1.9000    5.6423    0.3788 H   0  0  0  0  0  0  0  0  0  0  0  0
    0.0965    6.8530   -0.3732 H   0  0  0  0  0  0  0  0  0  0  0  0
   -5.1456   -0.0862   -1.3720 H   0  0  0  0  0  0  0  0  0  0  0  0
   -6.8491   -1.7786   -2.0252 H   0  0  0  0  0  0  0  0  0  0  0  0
   -6.2271   -2.9648   -0.8941 H   0  0  0  0  0  0  0  0  0  0  0  0
    2.4887   -2.0744   -0.6473 H   0  0  0  0  0  0  0  0  0  0  0  0
    6.5292   -0.6942    0.0766 H   0  0  0  0  0  0  0  0  0  0  0  0
   -9.2950   -1.2212    0.4912 H   0  0  0  0  0  0  0  0  0  0  0  0
   -8.8065   -2.7480   -0.2762 H   0  0  0  0  0  0  0  0  0  0  0  0
   -8.9690   -1.2582   -1.2334 H   0  0  0  0  0  0  0  0  0  0  0  0
   -7.4784   -1.3398    2.0874 H   0  0  0  0  0  0  0  0  0  0  0  0
   -6.9099   -2.8785    1.4108 H   0  0  0  0  0  0  0  0  0  0  0  0
   -5.8161   -1.4846    1.5522 H   0  0  0  0  0  0  0  0  0  0  0  0
    7.1871   -3.0804    0.2685 H   0  0  0  0  0  0  0  0  0  0  0  0
    2.5888   -4.6652   -1.4091 H   0  0  0  0  0  0  0  0  0  0  0  0
    3.5654   -5.6274   -0.2878 H   0  0  0  0  0  0  0  0  0  0  0  0
    2.2677   -4.6010    0.3437 H   0  0  0  0  0  0  0  0  0  0  0  0
  1 20  1  0  0  0  0
  2 18  2  0  0  0  0
  3 25  2  0  0  0  0
  4 10  1  0  0  0  0
  4 16  1  0  0  0  0
  4 17  1  0  0  0  0
  5 12  1  0  0  0  0
  5 15  1  0  0  0  0
  5 18  1  0  0  0  0
  6 17  2  0  0  0  0
  6 19  1  0  0  0  0
  7 17  1  0  0  0  0
  7 25  1  0  0  0  0
  7 47  1  0  0  0  0
  8 27  1  0  0  0  0
  8 31  1  0  0  0  0
  8 32  1  0  0  0  0
  9 33  2  0  0  0  0
  9 34  1  0  0  0  0
 10 11  1  0  0  0  0
 10 12  1  0  0  0  0
 10 36  1  0  0  0  0
 11 13  1  0  0  0  0
 11 37  1  0  0  0  0
 11 38  1  0  0  0  0
 12 39  1  0  0  0  0
 12 40  1  0  0  0  0
 13 14  1  0  0  0  0
 13 41  1  0  0  0  0
 13 42  1  0  0  0  0
 14 15  1  0  0  0  0
 14 43  1  0  0  0  0
 14 44  1  0  0  0  0
 15 45  1  0  0  0  0
 15 46  1  0  0  0  0
 16 19  2  0  0  0  0
 16 20  1  0  0  0  0
 18 22  1  0  0  0  0
 19 21  1  0  0  0  0
 20 23  2  0  0  0  0
 21 24  2  0  0  0  0
 21 48  1  0  0  0  0
 22 26  2  0  0  0  0
 22 49  1  0  0  0  0
 23 24  1  0  0  0  0
 23 50  1  0  0  0  0
 24 51  1  0  0  0  0
 25 28  1  0  0  0  0
 26 27  1  0  0  0  0
 26 52  1  0  0  0  0
 27 53  1  0  0  0  0
 27 54  1  0  0  0  0
 28 29  2  0  0  0  0
 28 30  1  0  0  0  0
 29 33  1  0  0  0  0
 29 55  1  0  0  0  0
 30 34  2  0  0  0  0
 30 56  1  0  0  0  0
 31 57  1  0  0  0  0
 31 58  1  0  0  0  0
 31 59  1  0  0  0  0
 32 60  1  0  0  0  0
 32 61  1  0  0  0  0
 32 62  1  0  0  0  0
 33 35  1  0  0  0  0
 34 63  1  0  0  0  0
 35 64  1  0  0  0  0
 35 65  1  0  0  0  0
 35 66  1  0  0  0  0
M  END
> <PUBCHEM_COMPOUND_CID>
72703790

> <PUBCHEM_CONFORMER_RMSD>
1

> <PUBCHEM_CONFORMER_DIVERSEORDER>
1
79
93
49
76
112
117
86
103
125
106
24
12
78
134
51
128
48
66
64
55
104
136
84
92
33
91
68
95
108
74
87
138
137
77
44
67
15
11
39
82
47
97
61
7
90
73
110
141
139
116
45
22
81
132
5
54
46
43
129
98
121
72
102
36
83
38
80
88
142
69
53
14
57
50
119
71
40
96
111
99
34
10
25
56
35
127
118
63
131
135
26
107
115
101
32
94
109
124
8
140
105
31
27
130
123
37
75
21
126
42
2
4
28
41
13
16
114
19
70
113
30
20
18
120
60
3
62
17
89
29
58
9
122
133
65
59
23
52
100
85
6

> <PUBCHEM_MMFF94_PARTIAL_CHARGES>
41
1 -0.18
10 0.26
12 0.3
15 0.3
16 -0.15
17 0.25
18 0.62
19 0.23
2 -0.57
20 0.18
21 -0.15
22 -0.14
23 -0.15
24 -0.15
25 0.54
26 -0.29
27 0.41
28 0.09
29 -0.15
3 -0.57
30 -0.15
31 0.27
32 0.27
33 0.17
34 0.16
35 0.14
4 0.05
47 0.37
48 0.15
49 0.15
5 -0.66
50 0.15
51 0.15
52 0.15
55 0.15
56 0.15
6 -0.57
63 0.15
7 -0.49
8 -0.81
9 -0.62

> <PUBCHEM_EFFECTIVE_ROTOR_COUNT>
9.4

> <PUBCHEM_PHARMACOPHORE_FEATURES>
9
1 2 acceptor
1 3 acceptor
1 7 donor
1 8 cation
1 9 acceptor
5 4 6 16 17 19 rings
6 16 19 20 21 23 24 rings
6 9 28 29 30 33 34 rings
7 5 10 11 12 13 14 15 rings

> <PUBCHEM_HEAVY_ATOM_COUNT>
35

> <PUBCHEM_ATOM_DEF_STEREO_COUNT>
1

> <PUBCHEM_ATOM_UDEF_STEREO_COUNT>
0

> <PUBCHEM_BOND_DEF_STEREO_COUNT>
1

> <PUBCHEM_BOND_UDEF_STEREO_COUNT>
0

> <PUBCHEM_ISOTOPIC_ATOM_COUNT>
0

> <PUBCHEM_COMPONENT_COUNT>
1

> <PUBCHEM_CACTVS_TAUTO_COUNT>
3

> <PUBCHEM_CONFORMER_ID>
04555F2E00000001

> <PUBCHEM_MMFF94_ENERGY>
98.0864

> <PUBCHEM_FEATURE_SELFOVERLAP>
45.779

> <PUBCHEM_SHAPE_FINGERPRINT>
10411042 1 18411417280510517694
10675989 125 18266457796448721592
11135609 149 18055037030501791925
11720765 8 18341606079171012241
12788726 201 18262791844852226922
13590594 115 18411141303740980889
13911987 19 17974024031243573428
140371 6 18336263556888518248
14068700 686 18271514301150943442
14659021 117 18264762174242358784
14681490 219 18409163277458140046
14747281 78 18045236069936057605
15198563 99 18267024946932685559
15351339 4 17968647216760643563
15361156 5 18048058289437268430
15400415 2 17330268880764003541
15629462 23 18263087617659093155
15775530 1 17465383414376130434
19301679 30 18339357462054596290
19311894 1 18194398884188565477
21133410 58 18410006680482390055
21478907 32 18340204102944928724
21703447 108 18270385136947305536
22033318 11 18057069998481238313
22223350 30 18057596560628319544
23536364 44 18190164720638567093
24771750 20 17610913660921431308
46194498 28 17749103439422405140
463206 1 18338792429142666454
6004065 56 18266169711876194346
70251023 43 18410008862393497449

> <PUBCHEM_SHAPE_MULTIPOLES>
680.53
14.78
7.74
1.4
22.25
10.8
-0.71
-21.91
3.22
-5.12
0.43
1.2
-0.64
-0.52

> <PUBCHEM_SHAPE_SELFOVERLAP>
1436.425

> <PUBCHEM_SHAPE_VOLUME>
381.3

> <PUBCHEM_COORDINATE_TYPE>
2
5
10

$$$$
130412842
  -OEChem-11282412143D

 73 76  0     1  0  0  0  0  0999 V2000
   -8.0755    1.5382    0.3393 F   0  0  0  0  0  0  0  0  0  0  0  0
   -6.5250    1.3449    1.8681 F   0  0  0  0  0  0  0  0  0  0  0  0
   -7.0893   -0.3781    0.6598 F   0  0  0  0  0  0  0  0  0  0  0  0
    3.7095   -3.5636    0.4541 O   0  0  0  0  0  0  0  0  0  0  0  0
   -0.1464    0.8742   -2.3040 O   0  0  0  0  0  0  0  0  0  0  0  0
   -4.5474    0.7202   -0.0888 N   0  0  0  0  0  0  0  0  0  0  0  0
    4.8069    0.8919   -0.9465 N   0  0  3  0  0  0  0  0  0  0  0  0
    6.2295    2.3286    2.1684 N   0  0  0  0  0  0  0  0  0  0  0  0
    1.0514   -3.2396   -0.4009 N   0  0  0  0  0  0  0  0  0  0  0  0
   -0.9416   -2.0288   -0.1410 N   0  0  0  0  0  0  0  0  0  0  0  0
    2.1259    1.2459   -1.8195 N   0  0  0  0  0  0  0  0  0  0  0  0
   -0.9463   -4.4385   -0.1224 N   0  0  0  0  0  0  0  0  0  0  0  0
   -3.4734    1.3901    0.4525 C   0  0  0  0  0  0  0  0  0  0  0  0
   -2.4390    0.4626    0.5934 C   0  0  0  0  0  0  0  0  0  0  0  0
   -2.9298   -0.7856    0.1181 C   0  0  0  0  0  0  0  0  0  0  0  0
   -4.2284   -0.5953   -0.2944 C   0  0  0  0  0  0  0  0  0  0  0  0
    4.9852    1.8633    0.1126 C   0  0  0  0  0  0  0  0  0  0  0  0
   -5.8331    1.3060   -0.4010 C   0  0  0  0  0  0  0  0  0  0  0  0
    3.8516   -0.1405   -0.8147 C   0  0  0  0  0  0  0  0  0  0  0  0
    6.0170    1.3504    1.1090 C   0  0  0  0  0  0  0  0  0  0  0  0
   -2.2782   -2.0616    0.0392 C   0  0  0  0  0  0  0  0  0  0  0  0
   -3.3399    2.7326    0.8246 C   0  0  0  0  0  0  0  0  0  0  0  0
   -1.2102    0.8937    1.1316 C   0  0  0  0  0  0  0  0  0  0  0  0
    2.5371    0.0393   -1.2456 C   0  0  0  0  0  0  0  0  0  0  0  0
    4.2388   -1.3533   -0.2445 C   0  0  0  0  0  0  0  0  0  0  0  0
    1.9972   -2.2063   -0.5362 C   0  0  0  0  0  0  0  0  0  0  0  0
    3.3116   -2.3862   -0.1052 C   0  0  0  0  0  0  0  0  0  0  0  0
    1.6100   -0.9936   -1.1066 C   0  0  0  0  0  0  0  0  0  0  0  0
    5.6125    0.9942   -2.1455 C   0  0  0  0  0  0  0  0  0  0  0  0
   -6.8903    0.9593    0.6269 C   0  0  0  0  0  0  0  0  0  0  0  0
   -2.1120    3.1371    1.3561 C   0  0  0  0  0  0  0  0  0  0  0  0
   -1.0622    2.2335    1.5081 C   0  0  0  0  0  0  0  0  0  0  0  0
   -3.0089   -3.2274    0.1462 C   0  0  0  0  0  0  0  0  0  0  0  0
   -0.3479   -3.2355   -0.2121 C   0  0  0  0  0  0  0  0  0  0  0  0
    5.1507    2.2623    3.1561 C   0  0  0  0  0  0  0  0  0  0  0  0
    7.5245    2.1139    2.8168 C   0  0  0  0  0  0  0  0  0  0  0  0
   -2.2829   -4.3976    0.0572 C   0  0  0  0  0  0  0  0  0  0  0  0
    0.8540    1.5819   -2.2982 C   0  0  0  0  0  0  0  0  0  0  0  0
    3.5816   -3.6837    1.8694 C   0  0  0  0  0  0  0  0  0  0  0  0
    0.8209    2.9722   -2.8380 C   0  0  0  0  0  0  0  0  0  0  0  0
   -0.3083    3.4791   -3.3426 C   0  0  0  0  0  0  0  0  0  0  0  0
   -4.9554   -1.2710   -0.7271 H   0  0  0  0  0  0  0  0  0  0  0  0
    4.0202    2.0582    0.5946 H   0  0  0  0  0  0  0  0  0  0  0  0
    5.3109    2.8238   -0.3074 H   0  0  0  0  0  0  0  0  0  0  0  0
   -6.1295    0.9315   -1.3876 H   0  0  0  0  0  0  0  0  0  0  0  0
   -5.7263    2.3902   -0.4920 H   0  0  0  0  0  0  0  0  0  0  0  0
    5.7373    0.3743    1.5234 H   0  0  0  0  0  0  0  0  0  0  0  0
    6.9527    1.1876    0.5562 H   0  0  0  0  0  0  0  0  0  0  0  0
   -4.1493    3.4461    0.7168 H   0  0  0  0  0  0  0  0  0  0  0  0
   -0.3785    0.2086    1.2658 H   0  0  0  0  0  0  0  0  0  0  0  0
    5.2641   -1.5061    0.0840 H   0  0  0  0  0  0  0  0  0  0  0  0
    0.6087   -0.9191   -1.4926 H   0  0  0  0  0  0  0  0  0  0  0  0
    6.3705    1.7803   -2.0610 H   0  0  0  0  0  0  0  0  0  0  0  0
    4.9860    1.2263   -3.0130 H   0  0  0  0  0  0  0  0  0  0  0  0
    6.1377    0.0527   -2.3396 H   0  0  0  0  0  0  0  0  0  0  0  0
   -1.9753    4.1730    1.6560 H   0  0  0  0  0  0  0  0  0  0  0  0
   -0.1166    2.5713    1.9241 H   0  0  0  0  0  0  0  0  0  0  0  0
    1.4547   -4.1669   -0.3070 H   0  0  0  0  0  0  0  0  0  0  0  0
   -4.0794   -3.2618    0.3051 H   0  0  0  0  0  0  0  0  0  0  0  0
    2.8536    1.9542   -1.8872 H   0  0  0  0  0  0  0  0  0  0  0  0
    4.1800    2.5089    2.7157 H   0  0  0  0  0  0  0  0  0  0  0  0
    5.0774    1.2742    3.6254 H   0  0  0  0  0  0  0  0  0  0  0  0
    5.3168    3.0010    3.9489 H   0  0  0  0  0  0  0  0  0  0  0  0
    7.5985    1.1192    3.2715 H   0  0  0  0  0  0  0  0  0  0  0  0
    8.3416    2.2270    2.0954 H   0  0  0  0  0  0  0  0  0  0  0  0
    7.6936    2.8640    3.5975 H   0  0  0  0  0  0  0  0  0  0  0  0
   -2.7699   -5.3639    0.1337 H   0  0  0  0  0  0  0  0  0  0  0  0
    3.9210   -4.6815    2.1604 H   0  0  0  0  0  0  0  0  0  0  0  0
    2.5376   -3.5662    2.1763 H   0  0  0  0  0  0  0  0  0  0  0  0
    4.2069   -2.9404    2.3742 H   0  0  0  0  0  0  0  0  0  0  0  0
    1.7256    3.5700   -2.8173 H   0  0  0  0  0  0  0  0  0  0  0  0
   -0.3212    4.4915   -3.7326 H   0  0  0  0  0  0  0  0  0  0  0  0
   -1.2350    2.9175   -3.3819 H   0  0  0  0  0  0  0  0  0  0  0  0
  1 30  1  0  0  0  0
  2 30  1  0  0  0  0
  3 30  1  0  0  0  0
  4 27  1  0  0  0  0
  4 39  1  0  0  0  0
  5 38  2  0  0  0  0
  6 13  1  0  0  0  0
  6 16  1  0  0  0  0
  6 18  1  0  0  0  0
  7 17  1  0  0  0  0
  7 19  1  0  0  0  0
  7 29  1  0  0  0  0
  8 20  1  0  0  0  0
  8 35  1  0  0  0  0
  8 36  1  0  0  0  0
  9 26  1  0  0  0  0
  9 34  1  0  0  0  0
  9 58  1  0  0  0  0
 10 21  2  0  0  0  0
 10 34  1  0  0  0  0
 11 24  1  0  0  0  0
 11 38  1  0  0  0  0
 11 60  1  0  0  0  0
 12 34  2  0  0  0  0
 12 37  1  0  0  0  0
 13 14  1  0  0  0  0
 13 22  2  0  0  0  0
 14 15  1  0  0  0  0
 14 23  2  0  0  0  0
 15 16  2  0  0  0  0
 15 21  1  0  0  0  0
 16 42  1  0  0  0  0
 17 20  1  0  0  0  0
 17 43  1  0  0  0  0
 17 44  1  0  0  0  0
 18 30  1  0  0  0  0
 18 45  1  0  0  0  0
 18 46  1  0  0  0  0
 19 24  1  0  0  0  0
 19 25  2  0  0  0  0
 20 47  1  0  0  0  0
 20 48  1  0  0  0  0
 21 33  1  0  0  0  0
 22 31  1  0  0  0  0
 22 49  1  0  0  0  0
 23 32  1  0  0  0  0
 23 50  1  0  0  0  0
 24 28  2  0  0  0  0
 25 27  1  0  0  0  0
 25 51  1  0  0  0  0
 26 27  2  0  0  0  0
 26 28  1  0  0  0  0
 28 52  1  0  0  0  0
 29 53  1  0  0  0  0
 29 54  1  0  0  0  0
 29 55  1  0  0  0  0
 31 32  2  0  0  0  0
 31 56  1  0  0  0  0
 32 57  1  0  0  0  0
 33 37  2  0  0  0  0
 33 59  1  0  0  0  0
 35 61  1  0  0  0  0
 35 62  1  0  0  0  0
 35 63  1  0  0  0  0
 36 64  1  0  0  0  0
 36 65  1  0  0  0  0
 36 66  1  0  0  0  0
 37 67  1  0  0  0  0
 38 40  1  0  0  0  0
 39 68  1  0  0  0  0
 39 69  1  0  0  0  0
 39 70  1  0  0  0  0
 40 41  2  0  0  0  0
 40 71  1  0  0  0  0
 41 72  1  0  0  0  0
 41 73  1  0  0  0  0
M  END
> <PUBCHEM_COMPOUND_CID>
130412842

> <PUBCHEM_CONFORMER_RMSD>
1.2

> <PUBCHEM_CONFORMER_DIVERSEORDER>
1
26
103
122
112
38
115
128
65
98
85
69
34
84
39
72
75
119
78
126
91
117
114
36
11
80
24
102
101
107
27
15
104
82
118
51
61
19
60
129
30
53
48
54
2
45
68
44
90
3
41
42
13
37
83
88
40
111
79
96
125
59
131
62
66
97
74
56
116
57
76
63
124
9
4
70
121
58
123
14
100
31
16
23
108
109
35
77
64
73
29
8
18
105
20
110
10
127
32
86
87
67
28
5
120
55
92
21
99
46
22
89
6
49
130
52
17
47
106
113
33
93
71
94
12
81
43
25
50
95
7

> <PUBCHEM_MMFF94_PARTIAL_CHARGES>
54
1 -0.34
10 -0.62
11 -0.55
12 -0.62
13 -0.15
15 -0.05
16 -0.3
17 0.37
18 0.26
19 0.1
2 -0.34
20 0.27
21 0.36
22 -0.15
23 -0.15
24 0.12
25 -0.15
26 0.1
27 0.08
28 -0.15
29 0.37
3 -0.34
30 1.02
31 -0.15
32 -0.15
33 -0.15
34 0.72
35 0.27
36 0.27
37 0.16
38 0.62
39 0.28
4 -0.36
40 -0.14
41 -0.3
42 0.15
49 0.15
5 -0.57
50 0.15
51 0.15
52 0.15
56 0.15
57 0.15
58 0.4
59 0.15
6 0.05
60 0.37
67 0.15
7 -0.84
71 0.15
72 0.15
73 0.15
8 -0.81
9 -0.6

> <PUBCHEM_EFFECTIVE_ROTOR_COUNT>
13

> <PUBCHEM_PHARMACOPHORE_FEATURES>
14
1 10 acceptor
1 11 donor
1 4 acceptor
1 41 hydrophobe
1 5 acceptor
1 6 cation
1 7 cation
1 8 cation
1 9 donor
4 9 10 12 34 cation
5 6 13 14 15 16 rings
6 10 12 21 33 34 37 rings
6 13 14 22 23 31 32 rings
6 19 24 25 26 27 28 rings

> <PUBCHEM_HEAVY_ATOM_COUNT>
41

> <PUBCHEM_ATOM_DEF_STEREO_COUNT>
0

> <PUBCHEM_ATOM_UDEF_STEREO_COUNT>
0

> <PUBCHEM_BOND_DEF_STEREO_COUNT>
0

> <PUBCHEM_BOND_UDEF_STEREO_COUNT>
0

> <PUBCHEM_ISOTOPIC_ATOM_COUNT>
0

> <PUBCHEM_COMPONENT_COUNT>
1

> <PUBCHEM_CACTVS_TAUTO_COUNT>
28

> <PUBCHEM_CONFORMER_ID>
07C5F12A00000001

> <PUBCHEM_MMFF94_ENERGY>
143.93

> <PUBCHEM_FEATURE_SELFOVERLAP>
71.138

> <PUBCHEM_SHAPE_FINGERPRINT>
10439779 11 18264208182857630358
11513181 2 18059583464018133334
12422481 6 18114164342923918810
13617811 41 18411134732547156233
14117953 113 18261123936761680749
14394314 77 18342746204600318241
14395042 24 18117843429227620827
14739800 52 18272077310890892706
19319366 153 18268148670193968367
20511986 3 18411691080623439151
20642791 105 18191873533718150375
20764821 26 17836659878003524033
21033648 29 18270402810210279122
392239 28 18056479693422061682

> <PUBCHEM_SHAPE_MULTIPOLES>
775.33
16.26
5.48
2.61
4.27
5.21
-0.49
-10.8
10.36
-0.44
0.26
-4.18
-3.45
0.64

> <PUBCHEM_SHAPE_SELFOVERLAP>
1666.48

> <PUBCHEM_SHAPE_VOLUME>
431.8

> <PUBCHEM_COORDINATE_TYPE>
2
5
10

$$$$
135138184
  -OEChem-11282412143D

 43 45  0     1  0  0  0  0  0999 V2000
   -2.7021   -3.3664    0.0257 F   0  0  0  0  0  0  0  0  0  0  0  0
    4.2579   -2.0950    1.8297 O   0  0  0  0  0  0  0  0  0  0  0  0
   -0.8117    4.0909    0.1600 O   0  0  0  0  0  0  0  0  0  0  0  0
   -5.9558   -0.0911   -0.2124 O   0  0  0  0  0  0  0  0  0  0  0  0
    2.0339    0.5768    0.3523 N   0  0  0  0  0  0  0  0  0  0  0  0
    0.7827    0.0942    0.2646 N   0  0  0  0  0  0  0  0  0  0  0  0
   -1.3207    1.2300    0.1127 N   0  0  0  0  0  0  0  0  0  0  0  0
    3.8309    0.0823   -2.9856 N   0  0  0  0  0  0  0  0  0  0  0  0
    1.3819    4.7446    0.2977 N   0  0  0  0  0  0  0  0  0  0  0  0
   -4.3328   -1.7454   -0.0936 N   0  0  0  0  0  0  0  0  0  0  0  0
    3.2084   -0.3835    0.4376 C   0  0  2  0  0  0  0  0  0  0  0  0
    3.3433   -1.3063   -0.7986 C   0  0  2  0  0  0  0  0  0  0  0  0
    4.4701   -2.3244   -0.5726 C   0  0  0  0  0  0  0  0  0  0  0  0
    3.1332   -1.2222    1.7241 C   0  0  0  0  0  0  0  0  0  0  0  0
    4.3029   -3.0381    0.7613 C   0  0  0  0  0  0  0  0  0  0  0  0
    2.1003    1.9392    0.3541 C   0  0  0  0  0  0  0  0  0  0  0  0
    3.6162   -0.5289   -2.0231 C   0  0  0  0  0  0  0  0  0  0  0  0
    0.8021    2.3784    0.2613 C   0  0  0  0  0  0  0  0  0  0  0  0
    0.0346    1.1994    0.2093 C   0  0  0  0  0  0  0  0  0  0  0  0
    0.3945    3.7517    0.2298 C   0  0  0  0  0  0  0  0  0  0  0  0
   -2.3466    0.2168    0.0425 C   0  0  0  0  0  0  0  0  0  0  0  0
   -3.6845    0.5833   -0.0531 C   0  0  0  0  0  0  0  0  0  0  0  0
   -2.0006   -1.1297    0.0700 C   0  0  0  0  0  0  0  0  0  0  0  0
   -4.6307   -0.4269   -0.1178 C   0  0  0  0  0  0  0  0  0  0  0  0
   -3.0221   -2.0633   -0.0002 C   0  0  0  0  0  0  0  0  0  0  0  0
   -6.8854   -1.1664   -0.2757 C   0  0  0  0  0  0  0  0  0  0  0  0
    4.0933    0.2666    0.4957 H   0  0  0  0  0  0  0  0  0  0  0  0
    2.4036   -1.8566   -0.9410 H   0  0  0  0  0  0  0  0  0  0  0  0
    5.4370   -1.8030   -0.5750 H   0  0  0  0  0  0  0  0  0  0  0  0
    4.4978   -3.0563   -1.3886 H   0  0  0  0  0  0  0  0  0  0  0  0
    3.1400   -0.5653    2.6009 H   0  0  0  0  0  0  0  0  0  0  0  0
    2.2103   -1.8132    1.7737 H   0  0  0  0  0  0  0  0  0  0  0  0
    3.3963   -3.6543    0.7753 H   0  0  0  0  0  0  0  0  0  0  0  0
    5.1559   -3.7011    0.9376 H   0  0  0  0  0  0  0  0  0  0  0  0
    3.0487    2.4544    0.4201 H   0  0  0  0  0  0  0  0  0  0  0  0
   -1.7593    2.1500    0.0794 H   0  0  0  0  0  0  0  0  0  0  0  0
   -3.9846    1.6260   -0.0768 H   0  0  0  0  0  0  0  0  0  0  0  0
    2.3735    4.5419    0.3620 H   0  0  0  0  0  0  0  0  0  0  0  0
    1.1235    5.7258    0.2837 H   0  0  0  0  0  0  0  0  0  0  0  0
   -0.9864   -1.4953    0.1427 H   0  0  0  0  0  0  0  0  0  0  0  0
   -7.8899   -0.7389   -0.3479 H   0  0  0  0  0  0  0  0  0  0  0  0
   -6.8430   -1.7763    0.6329 H   0  0  0  0  0  0  0  0  0  0  0  0
   -6.7156   -1.7805   -1.1665 H   0  0  0  0  0  0  0  0  0  0  0  0
  1 25  1  0  0  0  0
  2 14  1  0  0  0  0
  2 15  1  0  0  0  0
  3 20  2  0  0  0  0
  4 24  1  0  0  0  0
  4 26  1  0  0  0  0
  5  6  1  0  0  0  0
  5 11  1  0  0  0  0
  5 16  1  0  0  0  0
  6 19  2  0  0  0  0
  7 19  1  0  0  0  0
  7 21  1  0  0  0  0
  7 36  1  0  0  0  0
  8 17  3  0  0  0  0
  9 20  1  0  0  0  0
  9 38  1  0  0  0  0
  9 39  1  0  0  0  0
 10 24  2  0  0  0  0
 10 25  1  0  0  0  0
 11 12  1  0  0  0  0
 11 14  1  0  0  0  0
 11 27  1  0  0  0  0
 12 13  1  0  0  0  0
 12 17  1  0  0  0  0
 12 28  1  0  0  0  0
 13 15  1  0  0  0  0
 13 29  1  0  0  0  0
 13 30  1  0  0  0  0
 14 31  1  0  0  0  0
 14 32  1  0  0  0  0
 15 33  1  0  0  0  0
 15 34  1  0  0  0  0
 16 18  2  0  0  0  0
 16 35  1  0  0  0  0
 18 19  1  0  0  0  0
 18 20  1  0  0  0  0
 21 22  2  0  0  0  0
 21 23  1  0  0  0  0
 22 24  1  0  0  0  0
 22 37  1  0  0  0  0
 23 25  2  0  0  0  0
 23 40  1  0  0  0  0
 26 41  1  0  0  0  0
 26 42  1  0  0  0  0
 26 43  1  0  0  0  0
M  END
> <PUBCHEM_COMPOUND_CID>
135138184

> <PUBCHEM_CONFORMER_RMSD>
1

> <PUBCHEM_CONFORMER_DIVERSEORDER>
1
70
72
145
67
53
62
56
143
137
9
84
18
147
87
43
119
75
138
32
96
108
82
120
40
73
65
28
12
115
58
36
142
57
51
94
35
85
144
134
104
131
92
128
3
135
99
109
91
93
95
11
90
37
140
117
22
16
21
80
125
83
127
136
103
78
61
44
7
23
60
141
39
41
132
29
26
33
42
6
129
64
59
113
122
31
30
133
110
111
46
106
114
63
126
34
17
130
116
97
86
48
47
112
15
69
13
5
105
88
139
123
55
146
121
100
124
81
102
8
19
89
20
107
25
79
98
50
2
118
52
24
4
66
68
10
54
101
27
74
71
49
38
76
77
14
45

> <PUBCHEM_MMFF94_PARTIAL_CHARGES>
31
1 -0.19
10 -0.62
11 0.26
12 0.2
14 0.28
15 0.28
16 -0.3
17 0.36
18 -0.09
19 0.37
2 -0.56
20 0.72
21 0.1
22 -0.15
23 -0.15
24 0.39
25 0.5
26 0.28
3 -0.57
35 0.15
36 0.4
37 0.15
38 0.37
39 0.37
4 -0.36
40 0.15
5 0.31
6 -0.71
7 -0.58
8 -0.56
9 -0.8

> <PUBCHEM_EFFECTIVE_ROTOR_COUNT>
6.2

> <PUBCHEM_PHARMACOPHORE_FEATURES>
9
1 2 acceptor
1 3 acceptor
1 7 donor
1 8 acceptor
1 9 donor
3 6 7 19 cation
5 5 6 16 18 19 rings
6 10 21 22 23 24 25 rings
6 2 11 12 13 14 15 rings

> <PUBCHEM_HEAVY_ATOM_COUNT>
26

> <PUBCHEM_ATOM_DEF_STEREO_COUNT>
2

> <PUBCHEM_ATOM_UDEF_STEREO_COUNT>
0

> <PUBCHEM_BOND_DEF_STEREO_COUNT>
0

> <PUBCHEM_BOND_UDEF_STEREO_COUNT>
0

> <PUBCHEM_ISOTOPIC_ATOM_COUNT>
0

> <PUBCHEM_COMPONENT_COUNT>
1

> <PUBCHEM_CACTVS_TAUTO_COUNT>
10

> <PUBCHEM_CONFORMER_ID>
080E0B8800000001

> <PUBCHEM_MMFF94_ENERGY>
64.2012

> <PUBCHEM_FEATURE_SELFOVERLAP>
45.671

> <PUBCHEM_SHAPE_FINGERPRINT>
10721379 63 18338527459350617092
11578080 2 17678158431468448964
12107183 9 18341900637345860465
12363563 72 18412262805216151322
12553582 1 18339938029615258082
12788726 201 18263658264040589808
13533116 47 18130504236552811819
138480 1 14448530666905675072
13955234 65 18196653127870213137
14022347 108 18342466928066179030
14251757 5 18336842887382703701
14866123 147 17981044111821883665
15042514 8 18123183502750417585
15664445 248 18340211907496987592
15885798 251 18340201899499865057
17349148 13 17917716807770379351
1813 80 18272093772725084105
18222031 100 18201722842588200335
19319366 153 17894348878107682786
20403669 9 18342175540205027559
20832881 197 18261107457462697819
21478907 32 18266173933406754561
23366157 5 18118120501034119221
23559900 14 18271525424424883841
23598288 3 17829354405216938528
3004659 81 18113901516205155670
314173 41 18411138060455005794
3421961 26 18340762723513313088
463206 1 18333447642563152939
5104073 3 18269838769810049027
6823239 73 18200883971288386166
7164475 11 18192438463777614918
7970288 3 18338511928706832819
8863177 126 17969797443921485075
960060 61 17967820452461446343
9709674 26 18194964269593918379
9841814 1 18411984693088122344
9981440 41 17400069168354344025

> <PUBCHEM_SHAPE_MULTIPOLES>
480.3
11.91
4.6
1.38
14.53
5.33
0.8
-11.47
1.59
-1.99
-0.95
-2.85
-0.5
-0.71

> <PUBCHEM_SHAPE_SELFOVERLAP>
1023.61

> <PUBCHEM_SHAPE_VOLUME>
265.6

> <PUBCHEM_COORDINATE_TYPE>
2
5
10

$$$$
135398510
  -OEChem-11282412143D

 50 54  0     0  0  0  0  0  0999 V2000
   -5.3692   -2.4112   -1.0362 F   0  0  0  0  0  0  0  0  0  0  0  0
   -1.8870    2.4959    1.0026 O   0  0  0  0  0  0  0  0  0  0  0  0
    4.8689   -0.0752   -0.0305 N   0  0  0  0  0  0  0  0  0  0  0  0
    7.4853    0.4260   -1.0619 N   0  0  0  0  0  0  0  0  0  0  0  0
   -0.0166    0.5634   -0.1813 N   0  0  0  0  0  0  0  0  0  0  0  0
   -0.4269   -0.9929    1.3515 N   0  0  0  0  0  0  0  0  0  0  0  0
   -4.0291    1.9917    0.3920 N   0  0  0  0  0  0  0  0  0  0  0  0
   -2.8808   -1.9799   -0.3620 N   0  0  0  0  0  0  0  0  0  0  0  0
    5.6607   -1.1770   -0.5906 C   0  0  0  0  0  0  0  0  0  0  0  0
    5.2363    1.2725   -0.4741 C   0  0  0  0  0  0  0  0  0  0  0  0
    7.1576   -0.8800   -0.4801 C   0  0  0  0  0  0  0  0  0  0  0  0
    6.7478    1.4860   -0.3671 C   0  0  0  0  0  0  0  0  0  0  0  0
    3.5484   -0.3419    0.3506 C   0  0  0  0  0  0  0  0  0  0  0  0
    8.9254    0.6722   -0.9946 C   0  0  0  0  0  0  0  0  0  0  0  0
    2.5061    0.3784   -0.2423 C   0  0  0  0  0  0  0  0  0  0  0  0
    1.2116    0.0696    0.1768 C   0  0  0  0  0  0  0  0  0  0  0  0
    3.2962   -1.3207    1.3146 C   0  0  0  0  0  0  0  0  0  0  0  0
    0.9288   -0.9001    1.1346 C   0  0  0  0  0  0  0  0  0  0  0  0
    1.9881   -1.6139    1.7200 C   0  0  0  0  0  0  0  0  0  0  0  0
   -0.9627   -0.1023    0.5473 C   0  0  0  0  0  0  0  0  0  0  0  0
   -2.3110    0.2519    0.3342 C   0  0  0  0  0  0  0  0  0  0  0  0
   -3.2034   -0.6705   -0.1022 C   0  0  0  0  0  0  0  0  0  0  0  0
   -4.6198   -0.2545   -0.3153 C   0  0  0  0  0  0  0  0  0  0  0  0
   -4.9867    1.0748   -0.0578 C   0  0  0  0  0  0  0  0  0  0  0  0
   -2.7113    1.6722    0.6063 C   0  0  0  0  0  0  0  0  0  0  0  0
   -5.6301   -1.1236   -0.7651 C   0  0  0  0  0  0  0  0  0  0  0  0
   -6.3013    1.5241   -0.2383 C   0  0  0  0  0  0  0  0  0  0  0  0
   -6.9447   -0.6790   -0.9471 C   0  0  0  0  0  0  0  0  0  0  0  0
   -7.2804    0.6438   -0.6840 C   0  0  0  0  0  0  0  0  0  0  0  0
    5.3833   -1.3174   -1.6434 H   0  0  0  0  0  0  0  0  0  0  0  0
    5.4639   -2.1251   -0.0775 H   0  0  0  0  0  0  0  0  0  0  0  0
    4.7417    2.0334    0.1427 H   0  0  0  0  0  0  0  0  0  0  0  0
    4.9212    1.4206   -1.5151 H   0  0  0  0  0  0  0  0  0  0  0  0
    7.7036   -1.6727   -1.0060 H   0  0  0  0  0  0  0  0  0  0  0  0
    7.4606   -0.9203    0.5750 H   0  0  0  0  0  0  0  0  0  0  0  0
    7.0363    1.5266    0.6921 H   0  0  0  0  0  0  0  0  0  0  0  0
    6.9879    2.4618   -0.8068 H   0  0  0  0  0  0  0  0  0  0  0  0
    9.4732   -0.0992   -1.5472 H   0  0  0  0  0  0  0  0  0  0  0  0
    9.1737    1.6303   -1.4645 H   0  0  0  0  0  0  0  0  0  0  0  0
    9.2966    0.6872    0.0365 H   0  0  0  0  0  0  0  0  0  0  0  0
    2.6642    1.1345   -1.0027 H   0  0  0  0  0  0  0  0  0  0  0  0
    4.1135   -1.8645    1.7834 H   0  0  0  0  0  0  0  0  0  0  0  0
    1.8024   -2.3737    2.4724 H   0  0  0  0  0  0  0  0  0  0  0  0
   -0.1827    1.2899   -0.8659 H   0  0  0  0  0  0  0  0  0  0  0  0
   -4.3282    2.9466    0.5689 H   0  0  0  0  0  0  0  0  0  0  0  0
   -6.5688    2.5577   -0.0339 H   0  0  0  0  0  0  0  0  0  0  0  0
   -3.5822   -2.6324   -0.6859 H   0  0  0  0  0  0  0  0  0  0  0  0
   -1.9322   -2.3083   -0.2318 H   0  0  0  0  0  0  0  0  0  0  0  0
   -7.7048   -1.3724   -1.2957 H   0  0  0  0  0  0  0  0  0  0  0  0
   -8.3006    0.9871   -0.8256 H   0  0  0  0  0  0  0  0  0  0  0  0
  1 26  1  0  0  0  0
  2 25  2  0  0  0  0
  3  9  1  0  0  0  0
  3 10  1  0  0  0  0
  3 13  1  0  0  0  0
  4 11  1  0  0  0  0
  4 12  1  0  0  0  0
  4 14  1  0  0  0  0
  5 16  1  0  0  0  0
  5 20  1  0  0  0  0
  5 44  1  0  0  0  0
  6 18  1  0  0  0  0
  6 20  2  0  0  0  0
  7 24  1  0  0  0  0
  7 25  1  0  0  0  0
  7 45  1  0  0  0  0
  8 22  1  0  0  0  0
  8 47  1  0  0  0  0
  8 48  1  0  0  0  0
  9 11  1  0  0  0  0
  9 30  1  0  0  0  0
  9 31  1  0  0  0  0
 10 12  1  0  0  0  0
 10 32  1  0  0  0  0
 10 33  1  0  0  0  0
 11 34  1  0  0  0  0
 11 35  1  0  0  0  0
 12 36  1  0  0  0  0
 12 37  1  0  0  0  0
 13 15  2  0  0  0  0
 13 17  1  0  0  0  0
 14 38  1  0  0  0  0
 14 39  1  0  0  0  0
 14 40  1  0  0  0  0
 15 16  1  0  0  0  0
 15 41  1  0  0  0  0
 16 18  2  0  0  0  0
 17 19  2  0  0  0  0
 17 42  1  0  0  0  0
 18 19  1  0  0  0  0
 19 43  1  0  0  0  0
 20 21  1  0  0  0  0
 21 22  2  0  0  0  0
 21 25  1  0  0  0  0
 22 23  1  0  0  0  0
 23 24  2  0  0  0  0
 23 26  1  0  0  0  0
 24 27  1  0  0  0  0
 26 28  2  0  0  0  0
 27 29  2  0  0  0  0
 27 46  1  0  0  0  0
 28 29  1  0  0  0  0
 28 49  1  0  0  0  0
 29 50  1  0  0  0  0
M  END
> <PUBCHEM_COMPOUND_CID>
135398510

> <PUBCHEM_CONFORMER_RMSD>
0.8

> <PUBCHEM_CONFORMER_DIVERSEORDER>
1
6
2
5
4
3

> <PUBCHEM_MMFF94_PARTIAL_CHARGES>
39
1 -0.19
10 0.37
11 0.27
12 0.27
13 0.1
14 0.27
15 -0.15
16 -0.15
17 -0.15
18 0.23
19 -0.15
2 -0.57
20 0.14
21 0.06
22 0.07
23 0.03
24 0.12
25 0.62
26 0.19
27 -0.15
28 -0.15
29 -0.15
3 -0.84
4 -0.81
41 0.15
42 0.15
43 0.15
44 0.27
45 0.37
46 0.15
47 0.4
48 0.4
49 0.15
5 0.03
50 0.15
6 -0.57
7 -0.55
8 -0.9
9 0.37

> <PUBCHEM_EFFECTIVE_ROTOR_COUNT>
3.2

> <PUBCHEM_PHARMACOPHORE_FEATURES>
13
1 2 acceptor
1 3 cation
1 4 cation
1 5 donor
1 7 donor
1 8 cation
1 8 donor
3 5 6 20 cation
5 5 6 16 18 20 rings
6 13 15 16 17 18 19 rings
6 23 24 26 27 28 29 rings
6 3 4 9 10 11 12 rings
6 7 21 22 23 24 25 rings

> <PUBCHEM_HEAVY_ATOM_COUNT>
29

> <PUBCHEM_ATOM_DEF_STEREO_COUNT>
0

> <PUBCHEM_ATOM_UDEF_STEREO_COUNT>
0

> <PUBCHEM_BOND_DEF_STEREO_COUNT>
0

> <PUBCHEM_BOND_UDEF_STEREO_COUNT>
0

> <PUBCHEM_ISOTOPIC_ATOM_COUNT>
0

> <PUBCHEM_COMPONENT_COUNT>
1

> <PUBCHEM_CACTVS_TAUTO_COUNT>
-1

> <PUBCHEM_CONFORMER_ID>
0812046E00000001

> <PUBCHEM_MMFF94_ENERGY>
92.5561

> <PUBCHEM_FEATURE_SELFOVERLAP>
66.108

> <PUBCHEM_SHAPE_FINGERPRINT>
10 15 12540701422593318982
10076449 9 18202004352578705795
10299344 5 18410292497464145894
10411042 1 18127124415746791295
10462674 296 17335899466250261743
10595046 47 18340206298042267722
11135609 187 17749383746258019251
11315181 36 18413111667079673625
11524674 6 15339115762778602149
11719270 70 17703790289368752590
12082328 90 17418098672501091084
12236239 1 18260543390849505691
12788726 201 18343017749469546897
12838862 33 17604139411696854204
13288520 33 18131912663740307977
13540713 5 18046058268288658770
13627175 4 13470422020292725092
13631057 29 17604435231827716211
13668630 136 15267340725637692588
13673619 4 15769774654272344336
13685833 64 13614520753799723010
13690498 29 18341602764236338839
13782708 43 16487252170789735046
13947920 75 18412262835270334035
14528608 73 18334012791987280354
14767858 380 18334574659144771209
14856354 85 18202563999581093799
14931854 50 18335409176197398111
150020 25 17846498154036955648
15064981 194 17897184604773968222
15131766 46 13120008879896473494
15183329 4 18342740693782315034
15198563 99 16702030725253242672
15247644 1 15697998543970010461
15419008 47 16988837263884881448
15461852 350 18343310284124357068
1577012 14 18187641388497052987
16087824 20 18270680858742825121
16992828 155 17898856742690878101
16994733 274 16660634121373570293
18365409 1 18189620608191133990
18603816 31 15410604918021485629
18681886 176 18271519879231714752
2026 5 16844739612640712166
20511986 3 18115010953470255921
20609170 92 18059308612698358686
21033648 144 17313381218998998131
21033648 29 13696158465823176332
21150785 3 18342177765350988518
21267235 1 18342175605525939467
21365058 113 16487252196749755520
21781055 127 17416690138076335547
21792961 116 16773804667261041542
21859007 373 10879176608186788003
2297311 6 17846778499252469521
23198884 109 18408605855201293223
23516275 100 18194956564740432536
23559900 14 18201991179613673017
246663 6 15267345123921651788
24771293 8 18114180895744410516
249057 3 18130787888919835268
255183 451 17839729711134183183
3004659 81 18410849971524155873
3044373 193 17417800778475909752
335352 9 18342729716790158829
3411729 13 11963659011480545584
34797466 226 17489588995917017816
353859 58 17465938261447451650
4073 2 17822297898303319642
4093350 32 13695857126781743880
4098825 35 18343303635156403470
4258327 124 16516266139753643854
4325135 7 18410573985178033116
4339292 15 17203033175789721911
4340502 62 12901544637860509056
437795 160 18270668866840155034
437815 12 16702300170194406571
4516262 110 17821723932248952070
497634 4 18412544275877153101
49967989 163 18264209278296876095
504579 68 18408039602660510766
504843 32 16009040521964829978
513202 73 13830143766887786891
5265222 85 17845930844354268598
54039377 194 18340207509888242247
543368 44 18113337505436477585
563151 97 17968654900662363713
5758199 1 17748827410216344194
58260988 114 13829551195173277053
58902169 19 18260548948394782094
59521660 218 16443338733930275594
59755656 215 16774079557240803351
59755656 520 17385441037756074275
6058803 2 17974842870177297259
636775 8 18338800130551674055
9663363 56 14333125244081844818
9961470 85 17679593508611798444
9962374 69 13326558662980655024
999808 66 14692573234020639421

> <PUBCHEM_SHAPE_MULTIPOLES>
553.78
23.44
1.94
1.14
19.52
0.11
0.19
4.3
-11.12
-1.19
0.23
0.24
-0.31
-1.82

> <PUBCHEM_SHAPE_SELFOVERLAP>
1238.617

> <PUBCHEM_SHAPE_VOLUME>
294.9

> <PUBCHEM_COORDINATE_TYPE>
2
5
10

$$$$
139407400
  -OEChem-11282412143D

 68 72  0     1  0  0  0  0  0999 V2000
    7.8554    0.5556    0.4209 F   0  0  0  0  0  0  0  0  0  0  0  0
   -4.5986   -1.1236   -0.6758 O   0  0  0  0  0  0  0  0  0  0  0  0
    6.8006   -1.7960   -0.3327 O   0  0  0  0  0  0  0  0  0  0  0  0
   -9.0802    1.3434   -0.2010 N   0  0  0  0  0  0  0  0  0  0  0  0
    4.6694   -0.8671   -0.6163 N   0  0  0  0  0  0  0  0  0  0  0  0
   -1.5890   -2.0119    1.2098 N   0  0  0  0  0  0  0  0  0  0  0  0
   -1.0856   -2.0392   -1.1466 N   0  0  0  0  0  0  0  0  0  0  0  0
    3.7506    3.6563   -0.9553 N   0  0  0  0  0  0  0  0  0  0  0  0
   -0.6071    3.7750    2.2053 N   0  0  0  0  0  0  0  0  0  0  0  0
   -6.8464   -0.5529   -0.1027 C   0  0  0  0  0  0  0  0  0  0  0  0
   -7.8559   -0.4110    1.0415 C   0  0  0  0  0  0  0  0  0  0  0  0
   -6.7816    0.7537   -0.9009 C   0  0  0  0  0  0  0  0  0  0  0  0
   -9.2130    0.0755    0.5289 C   0  0  0  0  0  0  0  0  0  0  0  0
   -8.1743    1.2021   -1.3487 C   0  0  0  0  0  0  0  0  0  0  0  0
   -5.4687   -0.9416    0.4261 C   0  0  0  0  0  0  0  0  0  0  0  0
  -10.3912    1.8216   -0.6395 C   0  0  0  0  0  0  0  0  0  0  0  0
   -3.3031   -1.4818   -0.3947 C   0  0  0  0  0  0  0  0  0  0  0  0
    4.0402   -2.1143   -1.0343 C   0  0  1  0  0  0  0  0  0  0  0  0
    2.9369   -2.5287   -0.1200 C   0  0  0  0  0  0  0  0  0  0  0  0
   -2.8537   -1.6603    0.8977 C   0  0  0  0  0  0  0  0  0  0  0  0
   -2.3656   -1.6868   -1.3864 C   0  0  0  0  0  0  0  0  0  0  0  0
    3.6003   -1.9818   -2.4998 C   0  0  0  0  0  0  0  0  0  0  0  0
    0.5890   -2.5556    0.4493 C   0  0  0  0  0  0  0  0  0  0  0  0
    1.6203   -2.1666   -0.4054 C   0  0  0  0  0  0  0  0  0  0  0  0
   -0.7698   -2.1824    0.1546 C   0  0  0  0  0  0  0  0  0  0  0  0
    3.2219   -3.2800    1.0203 C   0  0  0  0  0  0  0  0  0  0  0  0
    3.8698    0.2658   -0.5516 C   0  0  0  0  0  0  0  0  0  0  0  0
    6.0330   -0.8367   -0.2983 C   0  0  0  0  0  0  0  0  0  0  0  0
    4.3486    1.4673   -0.1776 C   0  0  0  0  0  0  0  0  0  0  0  0
    0.8739   -3.3069    1.5896 C   0  0  0  0  0  0  0  0  0  0  0  0
    2.1903   -3.6693    1.8749 C   0  0  0  0  0  0  0  0  0  0  0  0
    6.5472    0.4949    0.1092 C   0  0  0  0  0  0  0  0  0  0  0  0
    5.7555    1.5678    0.1630 C   0  0  0  0  0  0  0  0  0  0  0  0
    3.4319    2.6238   -0.1428 C   0  0  0  0  0  0  0  0  0  0  0  0
    2.3242    2.6050    0.6895 C   0  0  0  0  0  0  0  0  0  0  0  0
    1.4901    3.7176    0.6880 C   0  0  0  0  0  0  0  0  0  0  0  0
    2.9166    4.7201   -0.9296 C   0  0  0  0  0  0  0  0  0  0  0  0
    1.7850    4.7996   -0.1341 C   0  0  0  0  0  0  0  0  0  0  0  0
    0.3329    3.7493    1.5253 C   0  0  0  0  0  0  0  0  0  0  0  0
   -7.1914   -1.3423   -0.7850 H   0  0  0  0  0  0  0  0  0  0  0  0
   -7.4765    0.2949    1.7921 H   0  0  0  0  0  0  0  0  0  0  0  0
   -7.9842   -1.3749    1.5483 H   0  0  0  0  0  0  0  0  0  0  0  0
   -6.1481    0.6305   -1.7872 H   0  0  0  0  0  0  0  0  0  0  0  0
   -6.3243    1.5444   -0.2913 H   0  0  0  0  0  0  0  0  0  0  0  0
   -9.6648   -0.6971   -0.1073 H   0  0  0  0  0  0  0  0  0  0  0  0
   -9.8743    0.2126    1.3933 H   0  0  0  0  0  0  0  0  0  0  0  0
   -8.0731    2.1661   -1.8620 H   0  0  0  0  0  0  0  0  0  0  0  0
   -8.5750    0.4856   -2.0780 H   0  0  0  0  0  0  0  0  0  0  0  0
   -5.5638   -1.8774    0.9915 H   0  0  0  0  0  0  0  0  0  0  0  0
   -5.0963   -0.1452    1.0835 H   0  0  0  0  0  0  0  0  0  0  0  0
  -11.0523    1.9750    0.2208 H   0  0  0  0  0  0  0  0  0  0  0  0
  -10.8782    1.1221   -1.3286 H   0  0  0  0  0  0  0  0  0  0  0  0
  -10.2992    2.7917   -1.1404 H   0  0  0  0  0  0  0  0  0  0  0  0
    4.7938   -2.9131   -1.0248 H   0  0  0  0  0  0  0  0  0  0  0  0
   -3.4758   -1.5349    1.7760 H   0  0  0  0  0  0  0  0  0  0  0  0
   -2.6217   -1.5707   -2.4344 H   0  0  0  0  0  0  0  0  0  0  0  0
    2.9231   -1.1458   -2.7005 H   0  0  0  0  0  0  0  0  0  0  0  0
    4.4796   -1.8191   -3.1356 H   0  0  0  0  0  0  0  0  0  0  0  0
    3.1144   -2.9006   -2.8485 H   0  0  0  0  0  0  0  0  0  0  0  0
    1.3823   -1.5719   -1.2815 H   0  0  0  0  0  0  0  0  0  0  0  0
    4.2433   -3.5675    1.2553 H   0  0  0  0  0  0  0  0  0  0  0  0
    2.8298    0.1614   -0.8334 H   0  0  0  0  0  0  0  0  0  0  0  0
    0.0918   -3.6342    2.2703 H   0  0  0  0  0  0  0  0  0  0  0  0
    2.4124   -4.2558    2.7616 H   0  0  0  0  0  0  0  0  0  0  0  0
    6.1539    2.5302    0.4655 H   0  0  0  0  0  0  0  0  0  0  0  0
    2.1112    1.7527    1.3292 H   0  0  0  0  0  0  0  0  0  0  0  0
    3.1908    5.5372   -1.5888 H   0  0  0  0  0  0  0  0  0  0  0  0
    1.1577    5.6847   -0.1629 H   0  0  0  0  0  0  0  0  0  0  0  0
  1 32  1  0  0  0  0
  2 15  1  0  0  0  0
  2 17  1  0  0  0  0
  3 28  2  0  0  0  0
  4 13  1  0  0  0  0
  4 14  1  0  0  0  0
  4 16  1  0  0  0  0
  5 18  1  0  0  0  0
  5 27  1  0  0  0  0
  5 28  1  0  0  0  0
  6 20  2  0  0  0  0
  6 25  1  0  0  0  0
  7 21  1  0  0  0  0
  7 25  2  0  0  0  0
  8 34  2  0  0  0  0
  8 37  1  0  0  0  0
  9 39  3  0  0  0  0
 10 11  1  0  0  0  0
 10 12  1  0  0  0  0
 10 15  1  0  0  0  0
 10 40  1  0  0  0  0
 11 13  1  0  0  0  0
 11 41  1  0  0  0  0
 11 42  1  0  0  0  0
 12 14  1  0  0  0  0
 12 43  1  0  0  0  0
 12 44  1  0  0  0  0
 13 45  1  0  0  0  0
 13 46  1  0  0  0  0
 14 47  1  0  0  0  0
 14 48  1  0  0  0  0
 15 49  1  0  0  0  0
 15 50  1  0  0  0  0
 16 51  1  0  0  0  0
 16 52  1  0  0  0  0
 16 53  1  0  0  0  0
 17 20  1  0  0  0  0
 17 21  2  0  0  0  0
 18 19  1  0  0  0  0
 18 22  1  0  0  0  0
 18 54  1  0  0  0  0
 19 24  1  0  0  0  0
 19 26  2  0  0  0  0
 20 55  1  0  0  0  0
 21 56  1  0  0  0  0
 22 57  1  0  0  0  0
 22 58  1  0  0  0  0
 22 59  1  0  0  0  0
 23 24  2  0  0  0  0
 23 25  1  0  0  0  0
 23 30  1  0  0  0  0
 24 60  1  0  0  0  0
 26 31  1  0  0  0  0
 26 61  1  0  0  0  0
 27 29  2  0  0  0  0
 27 62  1  0  0  0  0
 28 32  1  0  0  0  0
 29 33  1  0  0  0  0
 29 34  1  0  0  0  0
 30 31  2  0  0  0  0
 30 63  1  0  0  0  0
 31 64  1  0  0  0  0
 32 33  2  0  0  0  0
 33 65  1  0  0  0  0
 34 35  1  0  0  0  0
 35 36  2  0  0  0  0
 35 66  1  0  0  0  0
 36 38  1  0  0  0  0
 36 39  1  0  0  0  0
 37 38  2  0  0  0  0
 37 67  1  0  0  0  0
 38 68  1  0  0  0  0
M  END
> <PUBCHEM_COMPOUND_CID>
139407400

> <PUBCHEM_CONFORMER_RMSD>
1

> <PUBCHEM_CONFORMER_DIVERSEORDER>
4
35
51
98
132
125
79
57
117
127
42
109
185
155
159
29
37
167
59
129
94
76
148
111
72
68
141
96
168
78
104
139
107
90
156
153
170
86
162
27
119
182
71
121
131
87
180
113
183
147
97
60
106
175
28
171
43
12
115
150
99
82
39
26
25
163
52
110
140
118
40
58
66
152
65
5
45
49
116
50
128
38
178
17
103
184
158
176
74
166
105
135
69
91
137
9
174
62
85
21
31
151
173
145
179
146
6
81
112
123
154
54
149
130
108
2
46
93
73
23
144
134
18
83
100
124
36
114
61
84
34
133
64
8
122
47
14
89
177
143
102
32
157
92
165
10
56
30
101
24
161
1
138
160
41
126
181
55
95
44
16
75
120
48
15
164
136
80
172
142
13
11
22
63
7
20
169
70
33
3
77
88
53
67
19

> <PUBCHEM_MMFF94_PARTIAL_CHARGES>
45
1 -0.15
13 0.27
14 0.27
15 0.28
16 0.27
17 0.08
18 0.44
19 -0.14
2 -0.36
20 0.16
21 0.16
24 -0.15
25 0.62
26 -0.15
27 -0.04
28 0.62
29 -0.03
3 -0.57
30 -0.15
31 -0.15
32 0.16
33 -0.15
34 0.34
35 -0.15
36 0.07
37 0.16
38 -0.15
39 0.48
4 -0.81
5 -0.47
55 0.15
56 0.15
6 -0.62
60 0.15
61 0.15
62 0.15
63 0.15
64 0.15
65 0.15
66 0.15
67 0.15
68 0.15
7 -0.62
8 -0.62
9 -0.56

> <PUBCHEM_EFFECTIVE_ROTOR_COUNT>
8.2

> <PUBCHEM_PHARMACOPHORE_FEATURES>
12
1 2 acceptor
1 3 acceptor
1 4 cation
1 6 acceptor
1 8 acceptor
1 9 acceptor
3 6 7 25 cation
6 19 23 24 26 30 31 rings
6 4 10 11 12 13 14 rings
6 5 27 28 29 32 33 rings
6 6 7 17 20 21 25 rings
6 8 34 35 36 37 38 rings

> <PUBCHEM_HEAVY_ATOM_COUNT>
39

> <PUBCHEM_ATOM_DEF_STEREO_COUNT>
1

> <PUBCHEM_ATOM_UDEF_STEREO_COUNT>
0

> <PUBCHEM_BOND_DEF_STEREO_COUNT>
0

> <PUBCHEM_BOND_UDEF_STEREO_COUNT>
0

> <PUBCHEM_ISOTOPIC_ATOM_COUNT>
0

> <PUBCHEM_COMPONENT_COUNT>
1

> <PUBCHEM_CACTVS_TAUTO_COUNT>
-1

> <PUBCHEM_CONFORMER_ID>
084F302800000004

> <PUBCHEM_MMFF94_ENERGY>
109.2446

> <PUBCHEM_FEATURE_SELFOVERLAP>
60.901

> <PUBCHEM_SHAPE_FINGERPRINT>
10256941 240 15685027927277700760
10675989 125 18340206422296392584
10816530 90 18335411362393839297
11204353 107 18337114566273008427
11456790 92 18040429984483748634
11621639 336 18266175033093124656
12925494 130 18336545040280804427
13944108 23 18336552711214084996
14117953 113 18131360708855841934
14395042 24 18266732489709177745
14400156 413 18122051019492004111
14537116 161 18341339924173263903
14849402 71 18409166598348386161
15264996 151 18115865209243204512
15320295 198 18334304201344724373
15351339 4 18410009892795038056
15439362 3 18122343751393757904
15773879 134 18194957677140736869
15781502 589 18269834216390639695
15890870 6 18334580166015622158
16087824 20 18409449202970528748
19053607 189 17980473791525877504
19246450 95 16833447972127512528
20609170 109 10768119160875787108
21033648 29 17895473760740005482
21133410 38 17845116033175696018
21860390 5 18128267873184171094
22122407 14 18410868650748383291
24893992 56 18334576875643984027
4066623 53 18199199395379576814
46939830 39 17750239282991551540
4760202 170 18410566259544964429
5047190 2 18199764561230291345
5109719 28 18263374727717389475
57676310 18 18269838627834009025
58902169 19 18060131055352756455

> <PUBCHEM_SHAPE_MULTIPOLES>
753.7
24.74
6.21
1.53
68.52
6.26
-0.03
8.16
4.58
-7.96
-1.61
-0.11
-0.36
0.58

> <PUBCHEM_SHAPE_SELFOVERLAP>
1640.093

> <PUBCHEM_SHAPE_VOLUME>
410.5

> <PUBCHEM_COORDINATE_TYPE>
2
5
10

$$$$
72547837
  -OEChem-11282412143D

 60 63  0     1  0  0  0  0  0999 V2000
   -6.8140   -2.9700    2.2300 Cl  0  0  0  0  0  0  0  0  0  0  0  0
    5.3168    1.1623    2.0035 F   0  0  0  0  0  0  0  0  0  0  0  0
   -4.3454    2.4426   -0.0001 F   0  0  0  0  0  0  0  0  0  0  0  0
   -6.4873    2.1652    0.2506 F   0  0  0  0  0  0  0  0  0  0  0  0
   -5.2026    2.2964    1.9929 F   0  0  0  0  0  0  0  0  0  0  0  0
   -0.9460   -0.7860    0.6118 O   0  0  0  0  0  0  0  0  0  0  0  0
   -0.4779    2.3610    0.3051 O   0  0  0  0  0  0  0  0  0  0  0  0
    0.2846   -0.2157   -1.2822 N   0  0  0  0  0  0  0  0  0  0  0  0
    3.7924    0.4014   -0.1453 N   0  0  0  0  0  0  0  0  0  0  0  0
   -2.7842   -2.1692   -0.8032 N   0  0  0  0  0  0  0  0  0  0  0  0
   -0.0182    3.7416   -1.4772 N   0  0  0  0  0  0  0  0  0  0  0  0
    5.2112   -1.4562   -0.5055 N   0  0  0  0  0  0  0  0  0  0  0  0
    7.0963   -1.8194    0.9514 N   0  0  0  0  0  0  0  0  0  0  0  0
    7.5194   -0.3106    2.7421 N   0  0  0  0  0  0  0  0  0  0  0  0
    1.3577    0.4509   -0.5643 C   0  0  2  0  0  0  0  0  0  0  0  0
    1.4817    1.9189   -0.9929 C   0  0  2  0  0  0  0  0  0  0  0  0
    2.6732   -0.3053   -0.7823 C   0  0  0  0  0  0  0  0  0  0  0  0
    2.6678    2.5791   -0.2899 C   0  0  0  0  0  0  0  0  0  0  0  0
    3.9652    1.8080   -0.5182 C   0  0  0  0  0  0  0  0  0  0  0  0
    0.2933   -0.1559   -2.7383 C   0  0  0  0  0  0  0  0  0  0  0  0
   -1.8434   -1.3694   -1.5577 C   0  0  1  0  0  0  0  0  0  0  0  0
   -0.0301   -1.5145   -3.3460 C   0  0  0  0  0  0  0  0  0  0  0  0
   -0.8035   -0.7805   -0.6099 C   0  0  0  0  0  0  0  0  0  0  0  0
   -1.1658   -2.2373   -2.6175 C   0  0  0  0  0  0  0  0  0  0  0  0
    0.2387    2.6819   -0.6397 C   0  0  0  0  0  0  0  0  0  0  0  0
    4.9102   -0.3583    0.2187 C   0  0  0  0  0  0  0  0  0  0  0  0
   -3.8291   -1.6334   -0.0730 C   0  0  0  0  0  0  0  0  0  0  0  0
    5.6440    0.0669    1.3073 C   0  0  0  0  0  0  0  0  0  0  0  0
    6.7373   -0.7104    1.6310 C   0  0  0  0  0  0  0  0  0  0  0  0
   -4.0183   -0.2518   -0.0379 C   0  0  0  0  0  0  0  0  0  0  0  0
   -4.6937   -2.4738    0.6283 C   0  0  0  0  0  0  0  0  0  0  0  0
    6.3010   -2.1297   -0.0902 C   0  0  0  0  0  0  0  0  0  0  0  0
   -5.0721    0.2892    0.6984 C   0  0  0  0  0  0  0  0  0  0  0  0
   -5.7476   -1.9327    1.3646 C   0  0  0  0  0  0  0  0  0  0  0  0
   -5.9368   -0.5512    1.3997 C   0  0  0  0  0  0  0  0  0  0  0  0
   -5.2746    1.7661    0.7361 C   0  0  0  0  0  0  0  0  0  0  0  0
    1.1394    0.4125    0.5115 H   0  0  0  0  0  0  0  0  0  0  0  0
    1.6501    1.9986   -2.0735 H   0  0  0  0  0  0  0  0  0  0  0  0
    2.9019   -0.4391   -1.8462 H   0  0  0  0  0  0  0  0  0  0  0  0
    2.5601   -1.3113   -0.3550 H   0  0  0  0  0  0  0  0  0  0  0  0
    2.4723    2.6421    0.7894 H   0  0  0  0  0  0  0  0  0  0  0  0
    2.7931    3.6112   -0.6400 H   0  0  0  0  0  0  0  0  0  0  0  0
    4.2536    1.8661   -1.5754 H   0  0  0  0  0  0  0  0  0  0  0  0
    4.7621    2.2967    0.0522 H   0  0  0  0  0  0  0  0  0  0  0  0
    1.2575    0.1786   -3.1301 H   0  0  0  0  0  0  0  0  0  0  0  0
   -0.4601    0.5815   -3.0408 H   0  0  0  0  0  0  0  0  0  0  0  0
   -2.3511   -0.5559   -2.0896 H   0  0  0  0  0  0  0  0  0  0  0  0
    0.8640   -2.1501   -3.3124 H   0  0  0  0  0  0  0  0  0  0  0  0
   -0.2786   -1.3907   -4.4064 H   0  0  0  0  0  0  0  0  0  0  0  0
   -1.9050   -2.5951   -3.3451 H   0  0  0  0  0  0  0  0  0  0  0  0
   -0.7515   -3.1401   -2.1475 H   0  0  0  0  0  0  0  0  0  0  0  0
   -2.6334   -3.1706   -0.7459 H   0  0  0  0  0  0  0  0  0  0  0  0
    0.5915    3.9862   -2.2509 H   0  0  0  0  0  0  0  0  0  0  0  0
   -0.8355    4.3271   -1.3405 H   0  0  0  0  0  0  0  0  0  0  0  0
   -3.3622    0.4332   -0.5637 H   0  0  0  0  0  0  0  0  0  0  0  0
   -4.5457   -3.5514    0.6005 H   0  0  0  0  0  0  0  0  0  0  0  0
    6.5659   -3.0157   -0.6540 H   0  0  0  0  0  0  0  0  0  0  0  0
   -6.7571   -0.1245    1.9725 H   0  0  0  0  0  0  0  0  0  0  0  0
    7.5410    0.6718    2.9865 H   0  0  0  0  0  0  0  0  0  0  0  0
    8.3245   -0.8810    2.9687 H   0  0  0  0  0  0  0  0  0  0  0  0
  1 34  1  0  0  0  0
  2 28  1  0  0  0  0
  3 36  1  0  0  0  0
  4 36  1  0  0  0  0
  5 36  1  0  0  0  0
  6 23  2  0  0  0  0
  7 25  2  0  0  0  0
  8 15  1  0  0  0  0
  8 20  1  0  0  0  0
  8 23  1  0  0  0  0
  9 17  1  0  0  0  0
  9 19  1  0  0  0  0
  9 26  1  0  0  0  0
 10 21  1  0  0  0  0
 10 27  1  0  0  0  0
 10 52  1  0  0  0  0
 11 25  1  0  0  0  0
 11 53  1  0  0  0  0
 11 54  1  0  0  0  0
 12 26  2  0  0  0  0
 12 32  1  0  0  0  0
 13 29  1  0  0  0  0
 13 32  2  0  0  0  0
 14 29  1  0  0  0  0
 14 59  1  0  0  0  0
 14 60  1  0  0  0  0
 15 16  1  0  0  0  0
 15 17  1  0  0  0  0
 15 37  1  0  0  0  0
 16 18  1  0  0  0  0
 16 25  1  0  0  0  0
 16 38  1  0  0  0  0
 17 39  1  0  0  0  0
 17 40  1  0  0  0  0
 18 19  1  0  0  0  0
 18 41  1  0  0  0  0
 18 42  1  0  0  0  0
 19 43  1  0  0  0  0
 19 44  1  0  0  0  0
 20 22  1  0  0  0  0
 20 45  1  0  0  0  0
 20 46  1  0  0  0  0
 21 23  1  0  0  0  0
 21 24  1  0  0  0  0
 21 47  1  0  0  0  0
 22 24  1  0  0  0  0
 22 48  1  0  0  0  0
 22 49  1  0  0  0  0
 24 50  1  0  0  0  0
 24 51  1  0  0  0  0
 26 28  1  0  0  0  0
 27 30  1  0  0  0  0
 27 31  2  0  0  0  0
 28 29  2  0  0  0  0
 30 33  2  0  0  0  0
 30 55  1  0  0  0  0
 31 34  1  0  0  0  0
 31 56  1  0  0  0  0
 32 57  1  0  0  0  0
 33 35  1  0  0  0  0
 33 36  1  0  0  0  0
 34 35  2  0  0  0  0
 35 58  1  0  0  0  0
M  END
> <PUBCHEM_COMPOUND_CID>
72547837

> <PUBCHEM_CONFORMER_RMSD>
1.2

> <PUBCHEM_CONFORMER_DIVERSEORDER>
1
165
11
43
134
128
127
171
113
151
170
69
187
58
20
115
62
136
48
158
140
148
83
19
178
166
183
186
163
9
180
167
129
174
53
161
137
54
138
131
164
57
176
37
101
157
85
177
104
119
59
110
173
162
51
100
141
120
155
145
8
144
132
160
146
65
91
33
154
25
92
64
184
168
172
55
179
81
94
50
112
23
142
114
84
45
35
87
96
169
109
122
63
123
56
139
29
182
103
93
34
116
42
97
121
82
95
31
38
125
156
149
99
40
98
15
60
107
130
76
175
30
73
47
70
74
21
181
108
10
153
124
86
66
28
18
44
26
6
185
135
41
117
67
5
24
118
147
61
159
106
77
102
80
71
133
52
111
78
150
75
2
126
152
7
72
32
16
39
89
17
12
88
90
79
68
36
46
22
14
143
105
27
13
4
49
3

> <PUBCHEM_MMFF94_PARTIAL_CHARGES>
42
1 -0.18
10 -0.87
11 -0.8
12 -0.62
13 -0.62
14 -0.9
15 0.3
16 0.06
17 0.37
19 0.37
2 -0.19
20 0.3
21 0.43
23 0.57
25 0.57
26 0.41
27 0.1
28 0.19
29 0.41
3 -0.34
30 -0.15
31 -0.15
32 0.47
33 -0.14
34 0.18
35 -0.15
36 1.16
4 -0.34
5 -0.34
52 0.4
53 0.37
54 0.37
55 0.15
56 0.15
57 0.15
58 0.15
59 0.4
6 -0.57
60 0.4
7 -0.57
8 -0.66
9 -0.84

> <PUBCHEM_EFFECTIVE_ROTOR_COUNT>
8.2

> <PUBCHEM_PHARMACOPHORE_FEATURES>
13
1 10 cation
1 10 donor
1 11 donor
1 14 cation
1 14 donor
1 6 acceptor
1 7 acceptor
3 12 13 32 cation
3 9 12 26 cation
6 12 13 26 28 29 32 rings
6 27 30 31 33 34 35 rings
6 8 20 21 22 23 24 rings
6 9 15 16 17 18 19 rings

> <PUBCHEM_HEAVY_ATOM_COUNT>
36

> <PUBCHEM_ATOM_DEF_STEREO_COUNT>
3

> <PUBCHEM_ATOM_UDEF_STEREO_COUNT>
0

> <PUBCHEM_BOND_DEF_STEREO_COUNT>
0

> <PUBCHEM_BOND_UDEF_STEREO_COUNT>
0

> <PUBCHEM_ISOTOPIC_ATOM_COUNT>
0

> <PUBCHEM_COMPONENT_COUNT>
1

> <PUBCHEM_CACTVS_TAUTO_COUNT>
36

> <PUBCHEM_CONFORMER_ID>
0452FDFD00000001

> <PUBCHEM_MMFF94_ENERGY>
114.0295

> <PUBCHEM_FEATURE_SELFOVERLAP>
66.111

> <PUBCHEM_SHAPE_FINGERPRINT>
10319926 262 18410304605267305199
10764073 3 18337393725538867909
10939801 23 18127417958669227200
11135609 12 18409440368190970244
11672396 43 16951419891761451259
12107183 9 18410857637692411627
12107698 1 18265622151212165723
12422481 6 18201719548390573524
12717326 150 15867418837835635834
12838863 1 18343011204324457583
13673619 4 16950557813718796174
13690498 29 10737580448942738585
13782708 43 17168421679023194219
14251764 30 16805317820878813846
14294032 229 17202219585015298591
14931854 50 10953451942498888939
14950920 106 18115869770930963203
15021287 119 18339071687577836775
15082195 135 9943512064788815906
15320295 40 18341319055887456621
16110190 28 18413668024105327892
17913733 40 17132122312054862487
17980427 23 16988558073635404421
19246450 95 18271238331219837626
20775438 99 14491893786819409122
21033648 29 17561091297521628455
21859007 373 17988083266751284988
22440779 20 16660633016933992589
2260408 40 17895754140299628788
229767 44 18343580737376371823
23522609 53 17169860845296689372
23559900 14 15553065397011708516
23569914 152 8068379633001444904
23569943 247 16878209888291768154
255183 313 17775276162327726181
2748736 6 15267062553617998258
3117164 225 18201714085318812128
3504750 166 18342734169843725863
393628 194 14692288499148336994
4112364 45 17345756442073531386
4144715 1 18337407014378969795
4258327 124 11815027111663865266
445580 182 18201990037030682344
474113 269 18189327030924816063
504843 32 15913036655838045151
5104073 3 18410013281550835256
513202 73 17531241734291975309
58083652 198 18188475990969003932
7918774 8 14923945660634565403

> <PUBCHEM_SHAPE_MULTIPOLES>
667.03
19.12
3.52
2.48
7.45
2.03
-1.06
-9.33
17.75
-2.83
0.03
0.56
-1.22
-0.35

> <PUBCHEM_SHAPE_SELFOVERLAP>
1431.477

> <PUBCHEM_SHAPE_VOLUME>
368.7

> <PUBCHEM_COORDINATE_TYPE>
2
5
10

$$$$
3038522
  -OEChem-11282412143D

 83 87  0     0  0  0  0  0  0999 V2000
   -6.0676    1.6601    0.5152 O   0  0  0  0  0  0  0  0  0  0  0  0
    4.3571    1.3796    2.1741 O   0  0  0  0  0  0  0  0  0  0  0  0
   -4.0974    1.0459    2.3760 O   0  0  0  0  0  0  0  0  0  0  0  0
    9.8344   -1.1541   -0.2877 O   0  0  0  0  0  0  0  0  0  0  0  0
   -7.3925   -1.5281    0.1471 N   0  0  0  0  0  0  0  0  0  0  0  0
    0.2269    0.9729   -0.2738 N   0  0  0  0  0  0  0  0  0  0  0  0
    2.4408    0.3767    1.3658 N   0  0  0  0  0  0  0  0  0  0  0  0
   -0.4631    1.4757   -2.4505 N   0  0  0  0  0  0  0  0  0  0  0  0
    4.5067   -0.7558    1.2801 N   0  0  0  0  0  0  0  0  0  0  0  0
   -2.7898    1.8759   -2.9330 N   0  0  0  0  0  0  0  0  0  0  0  0
   -6.5380   -2.4621    0.8937 C   0  0  0  0  0  0  0  0  0  0  0  0
   -8.4822   -2.2370   -0.5383 C   0  0  0  0  0  0  0  0  0  0  0  0
   -5.9268   -3.5127   -0.0346 C   0  0  0  0  0  0  0  0  0  0  0  0
   -7.9344   -3.2803   -1.5135 C   0  0  0  0  0  0  0  0  0  0  0  0
   -7.0043   -4.2620   -0.8102 C   0  0  0  0  0  0  0  0  0  0  0  0
   -7.9313   -0.5026    1.0401 C   0  0  0  0  0  0  0  0  0  0  0  0
   -8.2752    0.7576    0.2525 C   0  0  0  0  0  0  0  0  0  0  0  0
    1.0187   -0.2424   -0.5339 C   0  0  0  0  0  0  0  0  0  0  0  0
    0.9178    2.0609    0.4348 C   0  0  0  0  0  0  0  0  0  0  0  0
    1.6848   -0.7209    0.7537 C   0  0  0  0  0  0  0  0  0  0  0  0
    1.6083    1.5323    1.6928 C   0  0  0  0  0  0  0  0  0  0  0  0
   -7.0532    1.3228   -0.4588 C   0  0  0  0  0  0  0  0  0  0  0  0
   -0.8091    1.2788   -1.1642 C   0  0  0  0  0  0  0  0  0  0  0  0
   -2.1150    1.3628   -0.6894 C   0  0  0  0  0  0  0  0  0  0  0  0
    3.8197    0.3980    1.6549 C   0  0  0  0  0  0  0  0  0  0  0  0
   -3.1007    1.6733   -1.6405 C   0  0  0  0  0  0  0  0  0  0  0  0
   -4.7628    1.5585    0.1364 C   0  0  0  0  0  0  0  0  0  0  0  0
   -2.4518    1.1528    0.6593 C   0  0  0  0  0  0  0  0  0  0  0  0
   -4.4198    1.7660   -1.2029 C   0  0  0  0  0  0  0  0  0  0  0  0
   -3.7780    1.2517    1.0688 C   0  0  0  0  0  0  0  0  0  0  0  0
   -1.4881    1.7666   -3.2676 C   0  0  0  0  0  0  0  0  0  0  0  0
    5.8632   -0.8577    0.8825 C   0  0  0  0  0  0  0  0  0  0  0  0
    6.6821    0.2714    0.9015 C   0  0  0  0  0  0  0  0  0  0  0  0
    6.3792   -2.0865    0.4708 C   0  0  0  0  0  0  0  0  0  0  0  0
   -3.0255    0.7359    3.2650 C   0  0  0  0  0  0  0  0  0  0  0  0
    8.0168    0.1716    0.5090 C   0  0  0  0  0  0  0  0  0  0  0  0
    7.7138   -2.1863    0.0782 C   0  0  0  0  0  0  0  0  0  0  0  0
    8.5326   -1.0572    0.0974 C   0  0  0  0  0  0  0  0  0  0  0  0
   10.2457   -0.3528   -1.3943 C   0  0  0  0  0  0  0  0  0  0  0  0
   11.3318    0.6098   -0.9390 C   0  0  0  0  0  0  0  0  0  0  0  0
   10.7260   -1.2591   -2.5177 C   0  0  0  0  0  0  0  0  0  0  0  0
   -7.1063   -2.9584    1.6913 H   0  0  0  0  0  0  0  0  0  0  0  0
   -5.7146   -1.9155    1.3698 H   0  0  0  0  0  0  0  0  0  0  0  0
   -9.0969   -1.5388   -1.1165 H   0  0  0  0  0  0  0  0  0  0  0  0
   -9.1448   -2.7300    0.1855 H   0  0  0  0  0  0  0  0  0  0  0  0
   -5.3314   -4.2225    0.5507 H   0  0  0  0  0  0  0  0  0  0  0  0
   -5.2412   -3.0251   -0.7396 H   0  0  0  0  0  0  0  0  0  0  0  0
   -7.3903   -2.7766   -2.3227 H   0  0  0  0  0  0  0  0  0  0  0  0
   -8.7641   -3.8257   -1.9773 H   0  0  0  0  0  0  0  0  0  0  0  0
   -6.5428   -4.9338   -1.5422 H   0  0  0  0  0  0  0  0  0  0  0  0
   -7.5849   -4.8862   -0.1200 H   0  0  0  0  0  0  0  0  0  0  0  0
   -8.8125   -0.8621    1.5870 H   0  0  0  0  0  0  0  0  0  0  0  0
   -7.1945   -0.2319    1.8077 H   0  0  0  0  0  0  0  0  0  0  0  0
   -9.0770    0.5763   -0.4707 H   0  0  0  0  0  0  0  0  0  0  0  0
   -8.6517    1.5045    0.9626 H   0  0  0  0  0  0  0  0  0  0  0  0
    1.7785   -0.0231   -1.2944 H   0  0  0  0  0  0  0  0  0  0  0  0
    0.3764   -1.0434   -0.9195 H   0  0  0  0  0  0  0  0  0  0  0  0
    0.2117    2.8492    0.7214 H   0  0  0  0  0  0  0  0  0  0  0  0
    1.6584    2.5091   -0.2392 H   0  0  0  0  0  0  0  0  0  0  0  0
    0.9284   -1.0388    1.4817 H   0  0  0  0  0  0  0  0  0  0  0  0
    2.2985   -1.5912    0.5243 H   0  0  0  0  0  0  0  0  0  0  0  0
    2.1962    2.3306    2.1556 H   0  0  0  0  0  0  0  0  0  0  0  0
    0.8647    1.2023    2.4284 H   0  0  0  0  0  0  0  0  0  0  0  0
   -7.3412    2.2365   -0.9919 H   0  0  0  0  0  0  0  0  0  0  0  0
   -6.6940    0.5900   -1.1918 H   0  0  0  0  0  0  0  0  0  0  0  0
   -1.6546    0.9088    1.3516 H   0  0  0  0  0  0  0  0  0  0  0  0
   -5.1700    2.0416   -1.9412 H   0  0  0  0  0  0  0  0  0  0  0  0
    3.9958   -1.6302    1.2409 H   0  0  0  0  0  0  0  0  0  0  0  0
   -1.2442    1.9309   -4.3101 H   0  0  0  0  0  0  0  0  0  0  0  0
    6.3425    1.2576    1.1895 H   0  0  0  0  0  0  0  0  0  0  0  0
    5.7518   -2.9739    0.4505 H   0  0  0  0  0  0  0  0  0  0  0  0
   -2.5464   -0.2140    3.0040 H   0  0  0  0  0  0  0  0  0  0  0  0
   -2.3082    1.5606    3.3368 H   0  0  0  0  0  0  0  0  0  0  0  0
   -3.4613    0.6074    4.2613 H   0  0  0  0  0  0  0  0  0  0  0  0
    8.6416    1.0598    0.5345 H   0  0  0  0  0  0  0  0  0  0  0  0
    8.1101   -3.1458   -0.2427 H   0  0  0  0  0  0  0  0  0  0  0  0
    9.4082    0.2380   -1.7900 H   0  0  0  0  0  0  0  0  0  0  0  0
   10.9678    1.2580   -0.1355 H   0  0  0  0  0  0  0  0  0  0  0  0
   11.6756    1.2406   -1.7645 H   0  0  0  0  0  0  0  0  0  0  0  0
   12.1916    0.0638   -0.5351 H   0  0  0  0  0  0  0  0  0  0  0  0
   11.0520   -0.6795   -3.3867 H   0  0  0  0  0  0  0  0  0  0  0  0
    9.9249   -1.9372   -2.8307 H   0  0  0  0  0  0  0  0  0  0  0  0
   11.5580   -1.8885   -2.1833 H   0  0  0  0  0  0  0  0  0  0  0  0
  1 22  1  0  0  0  0
  1 27  1  0  0  0  0
  2 25  2  0  0  0  0
  3 30  1  0  0  0  0
  3 35  1  0  0  0  0
  4 38  1  0  0  0  0
  4 39  1  0  0  0  0
  5 11  1  0  0  0  0
  5 12  1  0  0  0  0
  5 16  1  0  0  0  0
  6 18  1  0  0  0  0
  6 19  1  0  0  0  0
  6 23  1  0  0  0  0
  7 20  1  0  0  0  0
  7 21  1  0  0  0  0
  7 25  1  0  0  0  0
  8 23  2  0  0  0  0
  8 31  1  0  0  0  0
  9 25  1  0  0  0  0
  9 32  1  0  0  0  0
  9 68  1  0  0  0  0
 10 26  1  0  0  0  0
 10 31  2  0  0  0  0
 11 13  1  0  0  0  0
 11 42  1  0  0  0  0
 11 43  1  0  0  0  0
 12 14  1  0  0  0  0
 12 44  1  0  0  0  0
 12 45  1  0  0  0  0
 13 15  1  0  0  0  0
 13 46  1  0  0  0  0
 13 47  1  0  0  0  0
 14 15  1  0  0  0  0
 14 48  1  0  0  0  0
 14 49  1  0  0  0  0
 15 50  1  0  0  0  0
 15 51  1  0  0  0  0
 16 17  1  0  0  0  0
 16 52  1  0  0  0  0
 16 53  1  0  0  0  0
 17 22  1  0  0  0  0
 17 54  1  0  0  0  0
 17 55  1  0  0  0  0
 18 20  1  0  0  0  0
 18 56  1  0  0  0  0
 18 57  1  0  0  0  0
 19 21  1  0  0  0  0
 19 58  1  0  0  0  0
 19 59  1  0  0  0  0
 20 60  1  0  0  0  0
 20 61  1  0  0  0  0
 21 62  1  0  0  0  0
 21 63  1  0  0  0  0
 22 64  1  0  0  0  0
 22 65  1  0  0  0  0
 23 24  1  0  0  0  0
 24 26  1  0  0  0  0
 24 28  2  0  0  0  0
 26 29  2  0  0  0  0
 27 29  1  0  0  0  0
 27 30  2  0  0  0  0
 28 30  1  0  0  0  0
 28 66  1  0  0  0  0
 29 67  1  0  0  0  0
 31 69  1  0  0  0  0
 32 33  2  0  0  0  0
 32 34  1  0  0  0  0
 33 36  1  0  0  0  0
 33 70  1  0  0  0  0
 34 37  2  0  0  0  0
 34 71  1  0  0  0  0
 35 72  1  0  0  0  0
 35 73  1  0  0  0  0
 35 74  1  0  0  0  0
 36 38  2  0  0  0  0
 36 75  1  0  0  0  0
 37 38  1  0  0  0  0
 37 76  1  0  0  0  0
 39 40  1  0  0  0  0
 39 41  1  0  0  0  0
 39 77  1  0  0  0  0
 40 78  1  0  0  0  0
 40 79  1  0  0  0  0
 40 80  1  0  0  0  0
 41 81  1  0  0  0  0
 41 82  1  0  0  0  0
 41 83  1  0  0  0  0
M  END
> <PUBCHEM_COMPOUND_CID>
3038522

> <PUBCHEM_CONFORMER_RMSD>
1.4

> <PUBCHEM_CONFORMER_DIVERSEORDER>
8
12
19
21
23
9
22
13
14
5
17
18
7
24
1
16
4
11
6
3
20
2
10
15

> <PUBCHEM_MMFF94_PARTIAL_CHARGES>
42
1 -0.36
10 -0.62
11 0.27
12 0.27
16 0.27
18 0.37
19 0.37
2 -0.57
20 0.3
21 0.3
22 0.28
23 0.41
25 0.69
26 0.31
27 0.08
28 -0.15
29 -0.15
3 -0.36
30 0.08
31 0.47
32 0.12
33 -0.15
34 -0.15
35 0.28
36 -0.15
37 -0.15
38 0.08
39 0.28
4 -0.36
5 -0.81
6 -0.84
66 0.15
67 0.15
68 0.37
69 0.15
7 -0.66
70 0.15
71 0.15
75 0.15
76 0.15
8 -0.62
9 -0.55

> <PUBCHEM_EFFECTIVE_ROTOR_COUNT>
14.4

> <PUBCHEM_PHARMACOPHORE_FEATURES>
14
1 1 acceptor
1 2 acceptor
1 3 acceptor
1 4 acceptor
1 5 cation
1 9 donor
3 39 40 41 hydrophobe
3 6 8 23 cation
3 8 10 31 cation
6 24 26 27 28 29 30 rings
6 32 33 34 36 37 38 rings
6 5 11 12 13 14 15 rings
6 6 7 18 19 20 21 rings
6 8 10 23 24 26 31 rings

> <PUBCHEM_HEAVY_ATOM_COUNT>
41

> <PUBCHEM_ATOM_DEF_STEREO_COUNT>
0

> <PUBCHEM_ATOM_UDEF_STEREO_COUNT>
0

> <PUBCHEM_BOND_DEF_STEREO_COUNT>
0

> <PUBCHEM_BOND_UDEF_STEREO_COUNT>
0

> <PUBCHEM_ISOTOPIC_ATOM_COUNT>
0

> <PUBCHEM_COMPONENT_COUNT>
1

> <PUBCHEM_CACTVS_TAUTO_COUNT>
2

> <PUBCHEM_CONFORMER_ID>
002E5D3A00000008

> <PUBCHEM_MMFF94_ENERGY>
142.2452

> <PUBCHEM_FEATURE_SELFOVERLAP>
71.228

> <PUBCHEM_SHAPE_FINGERPRINT>
10372059 70 9511471008583027678
11135609 99 18343299306119304911
11456790 92 13183016349726295202
11621639 183 17058945355773386889
12013929 2 17988918926307748353
13347071 3 18337948017345635643
13383668 251 18262785389195316224
13947947 19 16950574289028532339
14415361 349 17894911819281116011
14856354 85 18343584014689820892
15183329 4 17131538450633572688
15776043 110 16845289402571237674
16989713 51 18113887261566948815
16993089 31 18272370845650610174
17324776 126 17268326738136391271
17686467 74 17168150043816642908
19611394 137 17774718762342255561
20105231 36 17918273139327118390
21223535 225 9295290547621346875
21781055 127 13326581808359272008
21867018 265 18333732433386088195
23389318 12 16805319998717227394
397638 5 8502653710585064590
4339292 15 17967802848028816938
45377200 153 18410573998369553026
4625314 4 18335695053563579485
4756326 101 11963392964510976526
5028188 123 18407759235796093836
5381727 24 13254503267914002157
6058803 2 15144023744889776424
9962374 69 17967252018552180700

> <PUBCHEM_SHAPE_MULTIPOLES>
790.4
37.22
3.36
2.51
73.08
3.66
0.68
26.49
9.26
-8.88
1.08
0.05
-1.36
0.19

> <PUBCHEM_SHAPE_SELFOVERLAP>
1674.492

> <PUBCHEM_SHAPE_VOLUME>
439.3

> <PUBCHEM_COORDINATE_TYPE>
2
5
10

$$$$
86567195
  -OEChem-11282412143D

 93100  0     1  0  0  0  0  0999 V2000
   -8.3478    5.9339   -0.9049 O   0  0  0  0  0  0  0  0  0  0  0  0
    2.1262    0.9786   -0.8400 O   0  0  0  0  0  0  0  0  0  0  0  0
    1.0269   -0.9458    0.7286 O   0  0  0  0  0  0  0  0  0  0  0  0
   -1.6584   -6.0556    2.2196 O   0  0  0  0  0  0  0  0  0  0  0  0
    5.5836    1.6655   -0.1373 N   0  0  0  0  0  0  0  0  0  0  0  0
   -6.7181    3.3185   -0.1049 N   0  0  1  0  0  0  0  0  0  0  0  0
   -5.3813    0.8165    0.2348 N   0  0  1  0  0  0  0  0  0  0  0  0
    4.0042   -0.3684   -1.2667 N   0  0  0  0  0  0  0  0  0  0  0  0
    3.4414   -1.9529   -2.9624 N   0  0  0  0  0  0  0  0  0  0  0  0
   -2.7514   -1.6671    0.9389 N   0  0  0  0  0  0  0  0  0  0  0  0
   -2.7801   -4.0296    0.7825 N   0  0  0  0  0  0  0  0  0  0  0  0
    0.4571   -5.7169    1.3054 N   0  0  0  0  0  0  0  0  0  0  0  0
    7.1511    4.6403    1.3955 C   0  0  0  0  0  0  0  0  0  0  0  0
    7.4783    3.2454    0.7072 C   0  0  0  0  0  0  0  0  0  0  0  0
    5.6754    5.0332    0.9413 C   0  0  0  0  0  0  0  0  0  0  0  0
    6.1266    2.8099    0.3172 C   0  0  0  0  0  0  0  0  0  0  0  0
    5.1449    3.7504    0.4384 C   0  0  0  0  0  0  0  0  0  0  0  0
    7.1972    4.4862    2.9258 C   0  0  0  0  0  0  0  0  0  0  0  0
    8.1560    5.7101    0.9602 C   0  0  0  0  0  0  0  0  0  0  0  0
    4.2283    1.8527   -0.3285 C   0  0  0  0  0  0  0  0  0  0  0  0
    3.9342    3.1652    0.0400 C   0  0  0  0  0  0  0  0  0  0  0  0
    6.2158    0.3940   -0.3869 C   0  0  0  0  0  0  0  0  0  0  0  0
   -7.1412    4.6653    0.3156 C   0  0  0  0  0  0  0  0  0  0  0  0
   -5.2513    3.2547   -0.1280 C   0  0  0  0  0  0  0  0  0  0  0  0
   -4.7509    1.8717   -0.5839 C   0  0  2  0  0  0  0  0  0  0  0  0
   -7.2389    2.3285    0.8440 C   0  0  0  0  0  0  0  0  0  0  0  0
    5.4669   -0.3473   -1.4895 C   0  0  0  0  0  0  0  0  0  0  0  0
   -6.8322    0.9097    0.4395 C   0  0  0  0  0  0  0  0  0  0  0  0
    3.3434    0.8066   -0.8134 C   0  0  0  0  0  0  0  0  0  0  0  0
   -8.6277    4.8391    0.0050 C   0  0  0  0  0  0  0  0  0  0  0  0
   -6.9278    5.6428   -0.8402 C   0  0  0  0  0  0  0  0  0  0  0  0
   -5.0281    1.6276   -2.0723 C   0  0  0  0  0  0  0  0  0  0  0  0
   -4.7425   -0.4212    0.3664 C   0  0  0  0  0  0  0  0  0  0  0  0
    3.2644   -1.5311   -1.6902 C   0  0  0  0  0  0  0  0  0  0  0  0
    2.4204   -2.1459   -0.7795 C   0  0  0  0  0  0  0  0  0  0  0  0
   -5.4092   -1.6062    0.0751 C   0  0  0  0  0  0  0  0  0  0  0  0
   -3.4261   -0.5050    0.7909 C   0  0  0  0  0  0  0  0  0  0  0  0
    1.7124   -3.2658   -1.2015 C   0  0  0  0  0  0  0  0  0  0  0  0
    2.2717   -1.6215    0.6125 C   0  0  0  0  0  0  0  0  0  0  0  0
   -4.7484   -2.8216    0.2153 C   0  0  0  0  0  0  0  0  0  0  0  0
   -3.4318   -2.7981    0.6464 C   0  0  0  0  0  0  0  0  0  0  0  0
    2.7367   -3.0443   -3.3366 C   0  0  0  0  0  0  0  0  0  0  0  0
    1.8680   -3.7301   -2.5029 C   0  0  0  0  0  0  0  0  0  0  0  0
    0.7904   -3.9820   -0.2986 C   0  0  0  0  0  0  0  0  0  0  0  0
   -0.6148   -3.6483   -0.1812 C   0  0  0  0  0  0  0  0  0  0  0  0
   -1.4525   -4.3064    0.6355 C   0  0  0  0  0  0  0  0  0  0  0  0
    1.2641   -4.9968    0.4428 C   0  0  0  0  0  0  0  0  0  0  0  0
   -0.9059   -5.4403    1.4634 C   0  0  0  0  0  0  0  0  0  0  0  0
    1.0808   -6.7980    2.0617 C   0  0  0  0  0  0  0  0  0  0  0  0
    7.9617    2.5463    1.3958 H   0  0  0  0  0  0  0  0  0  0  0  0
    8.1069    3.3728   -0.1805 H   0  0  0  0  0  0  0  0  0  0  0  0
    5.6922    5.7727    0.1330 H   0  0  0  0  0  0  0  0  0  0  0  0
    5.0811    5.4274    1.7713 H   0  0  0  0  0  0  0  0  0  0  0  0
    6.9466    5.4297    3.4233 H   0  0  0  0  0  0  0  0  0  0  0  0
    6.4878    3.7270    3.2731 H   0  0  0  0  0  0  0  0  0  0  0  0
    8.1967    4.1871    3.2605 H   0  0  0  0  0  0  0  0  0  0  0  0
    7.9222    6.6783    1.4163 H   0  0  0  0  0  0  0  0  0  0  0  0
    8.1461    5.8428   -0.1272 H   0  0  0  0  0  0  0  0  0  0  0  0
    9.1750    5.4350    1.2532 H   0  0  0  0  0  0  0  0  0  0  0  0
    2.9560    3.6248    0.0133 H   0  0  0  0  0  0  0  0  0  0  0  0
    6.1819   -0.1650    0.5549 H   0  0  0  0  0  0  0  0  0  0  0  0
    7.2597    0.5630   -0.6679 H   0  0  0  0  0  0  0  0  0  0  0  0
   -6.8169    5.0147    1.3008 H   0  0  0  0  0  0  0  0  0  0  0  0
   -4.8462    3.4695    0.8712 H   0  0  0  0  0  0  0  0  0  0  0  0
   -4.8338    4.0108   -0.8036 H   0  0  0  0  0  0  0  0  0  0  0  0
   -3.6633    1.8710   -0.4437 H   0  0  0  0  0  0  0  0  0  0  0  0
   -8.3335    2.3594    0.8896 H   0  0  0  0  0  0  0  0  0  0  0  0
   -6.8720    2.5360    1.8588 H   0  0  0  0  0  0  0  0  0  0  0  0
    5.6293    0.1499   -2.4541 H   0  0  0  0  0  0  0  0  0  0  0  0
    5.8414   -1.3746   -1.5631 H   0  0  0  0  0  0  0  0  0  0  0  0
   -7.1540    0.2314    1.2399 H   0  0  0  0  0  0  0  0  0  0  0  0
   -7.3593    0.6168   -0.4771 H   0  0  0  0  0  0  0  0  0  0  0  0
   -9.1505    4.0342   -0.5222 H   0  0  0  0  0  0  0  0  0  0  0  0
   -9.2368    5.1728    0.8506 H   0  0  0  0  0  0  0  0  0  0  0  0
   -6.3514    6.5369   -0.5843 H   0  0  0  0  0  0  0  0  0  0  0  0
   -6.5775    5.2482   -1.7998 H   0  0  0  0  0  0  0  0  0  0  0  0
   -6.0991    1.6254   -2.2995 H   0  0  0  0  0  0  0  0  0  0  0  0
   -4.6229    0.6613   -2.3914 H   0  0  0  0  0  0  0  0  0  0  0  0
   -4.5566    2.4044   -2.6836 H   0  0  0  0  0  0  0  0  0  0  0  0
   -6.4369   -1.6154   -0.2763 H   0  0  0  0  0  0  0  0  0  0  0  0
   -2.8497    0.3765    1.0535 H   0  0  0  0  0  0  0  0  0  0  0  0
    2.2831   -2.4467    1.3337 H   0  0  0  0  0  0  0  0  0  0  0  0
    3.0793   -0.9650    0.9448 H   0  0  0  0  0  0  0  0  0  0  0  0
   -5.2607   -3.7504   -0.0139 H   0  0  0  0  0  0  0  0  0  0  0  0
    2.8934   -3.3656   -4.3610 H   0  0  0  0  0  0  0  0  0  0  0  0
    1.3331   -4.5999   -2.8707 H   0  0  0  0  0  0  0  0  0  0  0  0
   -3.3349   -4.7607    1.2168 H   0  0  0  0  0  0  0  0  0  0  0  0
   -0.9707   -2.8353   -0.8086 H   0  0  0  0  0  0  0  0  0  0  0  0
    2.3054   -5.3028    0.4024 H   0  0  0  0  0  0  0  0  0  0  0  0
    0.9440   -0.6558    1.6530 H   0  0  0  0  0  0  0  0  0  0  0  0
    1.8829   -6.3844    2.6813 H   0  0  0  0  0  0  0  0  0  0  0  0
    1.4948   -7.5312    1.3622 H   0  0  0  0  0  0  0  0  0  0  0  0
    0.3586   -7.3003    2.7108 H   0  0  0  0  0  0  0  0  0  0  0  0
  1 30  1  0  0  0  0
  1 31  1  0  0  0  0
  2 29  2  0  0  0  0
  3 39  1  0  0  0  0
  3 90  1  0  0  0  0
  4 48  2  0  0  0  0
  5 16  1  0  0  0  0
  5 20  1  0  0  0  0
  5 22  1  0  0  0  0
  6 23  1  0  0  0  0
  6 24  1  0  0  0  0
  6 26  1  0  0  0  0
  7 25  1  0  0  0  0
  7 28  1  0  0  0  0
  7 33  1  0  0  0  0
  8 27  1  0  0  0  0
  8 29  1  0  0  0  0
  8 34  1  0  0  0  0
  9 34  2  0  0  0  0
  9 42  1  0  0  0  0
 10 37  1  0  0  0  0
 10 41  2  0  0  0  0
 11 41  1  0  0  0  0
 11 46  1  0  0  0  0
 11 87  1  0  0  0  0
 12 47  1  0  0  0  0
 12 48  1  0  0  0  0
 12 49  1  0  0  0  0
 13 14  1  0  0  0  0
 13 15  1  0  0  0  0
 13 18  1  0  0  0  0
 13 19  1  0  0  0  0
 14 16  1  0  0  0  0
 14 50  1  0  0  0  0
 14 51  1  0  0  0  0
 15 17  1  0  0  0  0
 15 52  1  0  0  0  0
 15 53  1  0  0  0  0
 16 17  2  0  0  0  0
 17 21  1  0  0  0  0
 18 54  1  0  0  0  0
 18 55  1  0  0  0  0
 18 56  1  0  0  0  0
 19 57  1  0  0  0  0
 19 58  1  0  0  0  0
 19 59  1  0  0  0  0
 20 21  2  0  0  0  0
 20 29  1  0  0  0  0
 21 60  1  0  0  0  0
 22 27  1  0  0  0  0
 22 61  1  0  0  0  0
 22 62  1  0  0  0  0
 23 30  1  0  0  0  0
 23 31  1  0  0  0  0
 23 63  1  0  0  0  0
 24 25  1  0  0  0  0
 24 64  1  0  0  0  0
 24 65  1  0  0  0  0
 25 32  1  0  0  0  0
 25 66  1  0  0  0  0
 26 28  1  0  0  0  0
 26 67  1  0  0  0  0
 26 68  1  0  0  0  0
 27 69  1  0  0  0  0
 27 70  1  0  0  0  0
 28 71  1  0  0  0  0
 28 72  1  0  0  0  0
 30 73  1  0  0  0  0
 30 74  1  0  0  0  0
 31 75  1  0  0  0  0
 31 76  1  0  0  0  0
 32 77  1  0  0  0  0
 32 78  1  0  0  0  0
 32 79  1  0  0  0  0
 33 36  1  0  0  0  0
 33 37  2  0  0  0  0
 34 35  1  0  0  0  0
 35 38  2  0  0  0  0
 35 39  1  0  0  0  0
 36 40  2  0  0  0  0
 36 80  1  0  0  0  0
 37 81  1  0  0  0  0
 38 43  1  0  0  0  0
 38 44  1  0  0  0  0
 39 82  1  0  0  0  0
 39 83  1  0  0  0  0
 40 41  1  0  0  0  0
 40 84  1  0  0  0  0
 42 43  2  0  0  0  0
 42 85  1  0  0  0  0
 43 86  1  0  0  0  0
 44 45  1  0  0  0  0
 44 47  2  0  0  0  0
 45 46  2  0  0  0  0
 45 88  1  0  0  0  0
 46 48  1  0  0  0  0
 47 89  1  0  0  0  0
 49 91  1  0  0  0  0
 49 92  1  0  0  0  0
 49 93  1  0  0  0  0
M  END
> <PUBCHEM_COMPOUND_CID>
86567195

> <PUBCHEM_CONFORMER_RMSD>
1.2

> <PUBCHEM_CONFORMER_DIVERSEORDER>
1
21
157
123
41
110
135
139
52
95
149
7
109
150
34
60
86
70
43
134
81
40
124
76
33
66
47
144
94
113
72
119
62
142
154
126
37
107
56
14
13
68
111
88
74
87
115
25
22
156
84
97
65
132
11
77
130
102
48
158
137
101
147
148
145
71
80
46
20
57
117
93
44
18
53
96
67
128
19
16
61
151
54
112
26
155
136
129
10
114
3
75
159
100
78
8
83
138
55
82
131
146
89
79
63
49
92
6
91
31
36
85
122
45
104
118
125
153
28
24
105
12
140
143
30
17
103
58
39
9
32
23
141
152
120
15
29
98
90
35
106
69
99
73
133
50
108
51
121
38
116
27
127
64
59
5
4
42
2

> <PUBCHEM_MMFF94_PARTIAL_CHARGES>
55
1 -0.52
10 -0.62
11 -0.6
12 -0.47
14 0.18
15 0.18
16 -0.33
17 -0.18
2 -0.57
20 -0.24
21 -0.15
22 0.26
23 0.21
24 0.27
25 0.37
26 0.27
27 0.3
28 0.37
29 0.71
3 -0.68
30 0.26
31 0.26
33 0.1
34 0.43
35 -0.14
36 -0.15
37 0.16
38 0.03
39 0.42
4 -0.57
40 -0.15
41 0.41
42 0.16
43 -0.15
44 -0.03
45 -0.15
46 0.11
47 -0.04
48 0.62
49 0.3
5 0.05
6 -0.75
60 0.15
7 -0.84
8 -0.48
80 0.15
81 0.15
84 0.15
85 0.15
86 0.15
87 0.4
88 0.15
89 0.15
9 -0.62
90 0.4

> <PUBCHEM_EFFECTIVE_ROTOR_COUNT>
10.2

> <PUBCHEM_PHARMACOPHORE_FEATURES>
19
1 1 acceptor
1 11 donor
1 2 acceptor
1 3 acceptor
1 3 donor
1 4 acceptor
1 5 cation
1 6 cation
1 7 cation
3 10 11 41 cation
3 13 18 19 hydrophobe
4 1 23 30 31 rings
5 13 14 15 16 17 rings
5 5 16 17 20 21 rings
6 10 33 36 37 40 41 rings
6 12 44 45 46 47 48 rings
6 5 8 20 22 27 29 rings
6 6 7 24 25 26 28 rings
6 9 34 35 38 42 43 rings

> <PUBCHEM_HEAVY_ATOM_COUNT>
49

> <PUBCHEM_ATOM_DEF_STEREO_COUNT>
1

> <PUBCHEM_ATOM_UDEF_STEREO_COUNT>
0

> <PUBCHEM_BOND_DEF_STEREO_COUNT>
0

> <PUBCHEM_BOND_UDEF_STEREO_COUNT>
0

> <PUBCHEM_ISOTOPIC_ATOM_COUNT>
0

> <PUBCHEM_COMPONENT_COUNT>
1

> <PUBCHEM_CACTVS_TAUTO_COUNT>
9

> <PUBCHEM_CONFORMER_ID>
0528E91B00000001

> <PUBCHEM_MMFF94_ENERGY>
194.6687

> <PUBCHEM_FEATURE_SELFOVERLAP>
96.775

> <PUBCHEM_SHAPE_FINGERPRINT>
10675989 125 18265899042883966379
11093857 5 18189073008629702311
11621639 183 18120941865583195684
11693224 71 18340196415470933781
11828042 107 18272638039793074648
12218070 45 18116427240200537141
12559415 180 18341618070551456657
15326921 28 18194677296805978722
15400415 2 18335425647228608469
19246450 95 18055064618358823130
19304144 158 18271246143759639169
19304671 126 18057052302519801991
21133410 221 17339553109112792024
21136928 126 17905325126821295769
21772524 286 18048596212321636084
21859007 373 18126294284108624294
21987440 362 18411703222701810924
3525247 18 18413106173348212057
354706 109 18339629157269136696
3918712 181 18408315576396044855
4144715 1 17974861867715329010
46848820 73 18342460348096913494
5265222 85 18410571829853719177
59521099 67 17617936933557825635
60111433 81 18265891350840879506
6677587 24 17704071750864261407

> <PUBCHEM_SHAPE_MULTIPOLES>
945.07
24.36
12.85
2.09
11.25
2.06
-0.84
-60.87
3.65
4.05
5.65
-2.71
2.15
8.76

> <PUBCHEM_SHAPE_SELFOVERLAP>
2078.627

> <PUBCHEM_SHAPE_VOLUME>
509.6

> <PUBCHEM_COORDINATE_TYPE>
2
5
10

$$$$
117797905
  -OEChem-11282412143D

 50 55  0     0  0  0  0  0  0999 V2000
   -0.0250    0.3957    2.5037 S   0  0  0  0  0  0  0  0  0  0  0  0
   -1.3255    0.6570    3.0907 O   0  0  0  0  0  0  0  0  0  0  0  0
    1.1575    0.3049    3.3388 O   0  0  0  0  0  0  0  0  0  0  0  0
   -1.2579   -1.4070    0.7946 N   0  0  0  0  0  0  0  0  0  0  0  0
    0.3202    1.6678    1.3279 N   0  0  0  0  0  0  0  0  0  0  0  0
    0.0796   -3.1983    0.7463 N   0  0  0  0  0  0  0  0  0  0  0  0
   -0.4681    2.7448    1.1531 N   0  0  0  0  0  0  0  0  0  0  0  0
    2.2382    3.1452   -1.1912 N   0  0  0  0  0  0  0  0  0  0  0  0
   -6.4689    0.4136   -1.2654 N   0  0  0  0  0  0  0  0  0  0  0  0
    5.7767   -1.5653   -1.0071 N   0  0  0  0  0  0  0  0  0  0  0  0
   -5.7871    1.5602   -1.1023 N   0  0  0  0  0  0  0  0  0  0  0  0
    6.6095   -0.5791   -1.3815 N   0  0  0  0  0  0  0  0  0  0  0  0
   -0.1997   -1.1243    1.6204 C   0  0  0  0  0  0  0  0  0  0  0  0
    1.4160    1.6425    0.5128 C   0  0  0  0  0  0  0  0  0  0  0  0
   -1.0412   -2.6821    0.2851 C   0  0  0  0  0  0  0  0  0  0  0  0
   -2.3653   -0.6236    0.4782 C   0  0  0  0  0  0  0  0  0  0  0  0
   -3.3028   -1.1012   -0.3681 C   0  0  0  0  0  0  0  0  0  0  0  0
    1.3277    2.7981   -0.2501 C   0  0  0  0  0  0  0  0  0  0  0  0
    0.6047   -2.2385    1.5736 C   0  0  0  0  0  0  0  0  0  0  0  0
    2.4678    0.7446    0.3585 C   0  0  0  0  0  0  0  0  0  0  0  0
   -2.0222   -3.1935   -0.6098 C   0  0  0  0  0  0  0  0  0  0  0  0
    3.4146    1.0838   -0.6049 C   0  0  0  0  0  0  0  0  0  0  0  0
   -3.0968   -2.4445   -0.9222 C   0  0  0  0  0  0  0  0  0  0  0  0
   -4.4690   -0.2624   -0.7047 C   0  0  0  0  0  0  0  0  0  0  0  0
    0.1516    3.4318    0.1889 C   0  0  0  0  0  0  0  0  0  0  0  0
    4.5410    0.2287   -0.8466 C   0  0  0  0  0  0  0  0  0  0  0  0
    3.2544    2.2607   -1.3282 C   0  0  0  0  0  0  0  0  0  0  0  0
   -5.7250   -0.7070   -1.0391 C   0  0  0  0  0  0  0  0  0  0  0  0
   -4.5661    1.1409   -0.7599 C   0  0  0  0  0  0  0  0  0  0  0  0
    4.5255   -1.1342   -0.6766 C   0  0  0  0  0  0  0  0  0  0  0  0
    5.8491    0.5143   -1.2814 C   0  0  0  0  0  0  0  0  0  0  0  0
   -7.8596    0.4564   -1.6489 C   0  0  0  0  0  0  0  0  0  0  0  0
    6.2461   -2.9299   -0.9847 C   0  0  0  0  0  0  0  0  0  0  0  0
   -2.4359    0.3604    0.9212 H   0  0  0  0  0  0  0  0  0  0  0  0
    1.5379   -2.4010    2.0933 H   0  0  0  0  0  0  0  0  0  0  0  0
    2.5512   -0.1441    0.9701 H   0  0  0  0  0  0  0  0  0  0  0  0
   -1.8914   -4.1826   -1.0345 H   0  0  0  0  0  0  0  0  0  0  0  0
   -3.8379   -2.8370   -1.6116 H   0  0  0  0  0  0  0  0  0  0  0  0
   -0.2817    4.3618   -0.1499 H   0  0  0  0  0  0  0  0  0  0  0  0
    3.9722    2.5523   -2.0919 H   0  0  0  0  0  0  0  0  0  0  0  0
   -6.1457   -1.6995   -1.1311 H   0  0  0  0  0  0  0  0  0  0  0  0
   -3.8034    1.8833   -0.5700 H   0  0  0  0  0  0  0  0  0  0  0  0
    3.7541   -1.8258   -0.3635 H   0  0  0  0  0  0  0  0  0  0  0  0
    6.2882    1.4707   -1.5288 H   0  0  0  0  0  0  0  0  0  0  0  0
   -8.2465   -0.5620   -1.7344 H   0  0  0  0  0  0  0  0  0  0  0  0
   -7.9351    0.9665   -2.6125 H   0  0  0  0  0  0  0  0  0  0  0  0
   -8.4118    1.0023   -0.8799 H   0  0  0  0  0  0  0  0  0  0  0  0
    6.5615   -3.2015   -1.9952 H   0  0  0  0  0  0  0  0  0  0  0  0
    7.0865   -2.9931   -0.2890 H   0  0  0  0  0  0  0  0  0  0  0  0
    5.4388   -3.5887   -0.6557 H   0  0  0  0  0  0  0  0  0  0  0  0
  1  2  2  0  0  0  0
  1  3  2  0  0  0  0
  1  5  1  0  0  0  0
  1 13  1  0  0  0  0
  4 13  1  0  0  0  0
  4 15  1  0  0  0  0
  4 16  1  0  0  0  0
  5  7  1  0  0  0  0
  5 14  1  0  0  0  0
  6 15  2  0  0  0  0
  6 19  1  0  0  0  0
  7 25  2  0  0  0  0
  8 18  1  0  0  0  0
  8 27  2  0  0  0  0
  9 11  1  0  0  0  0
  9 28  1  0  0  0  0
  9 32  1  0  0  0  0
 10 12  1  0  0  0  0
 10 30  1  0  0  0  0
 10 33  1  0  0  0  0
 11 29  2  0  0  0  0
 12 31  2  0  0  0  0
 13 19  2  0  0  0  0
 14 18  2  0  0  0  0
 14 20  1  0  0  0  0
 15 21  1  0  0  0  0
 16 17  2  0  0  0  0
 16 34  1  0  0  0  0
 17 23  1  0  0  0  0
 17 24  1  0  0  0  0
 18 25  1  0  0  0  0
 19 35  1  0  0  0  0
 20 22  2  0  0  0  0
 20 36  1  0  0  0  0
 21 23  2  0  0  0  0
 21 37  1  0  0  0  0
 22 26  1  0  0  0  0
 22 27  1  0  0  0  0
 23 38  1  0  0  0  0
 24 28  2  0  0  0  0
 24 29  1  0  0  0  0
 25 39  1  0  0  0  0
 26 30  2  0  0  0  0
 26 31  1  0  0  0  0
 27 40  1  0  0  0  0
 28 41  1  0  0  0  0
 29 42  1  0  0  0  0
 30 43  1  0  0  0  0
 31 44  1  0  0  0  0
 32 45  1  0  0  0  0
 32 46  1  0  0  0  0
 32 47  1  0  0  0  0
 33 48  1  0  0  0  0
 33 49  1  0  0  0  0
 33 50  1  0  0  0  0
M  END
> <PUBCHEM_COMPOUND_CID>
117797905

> <PUBCHEM_CONFORMER_RMSD>
0.8

> <PUBCHEM_CONFORMER_DIVERSEORDER>
1
97
86
82
102
61
107
75
73
67
124
130
95
24
5
83
39
66
119
115
90
59
35
12
99
141
52
94
15
64
6
89
54
76
7
70
104
134
129
31
92
69
133
114
137
112
72
136
20
127
118
4
51
46
103
88
77
80
71
3
65
27
131
45
113
8
139
93
142
135
143
41
14
63
146
22
117
2
120
128
78
33
13
126
138
100
60
145
44
48
106
144
43
58
18
25
62
16
50
49
23
55
116
53
37
121
11
19
132
57
29
87
101
42
30
140
9
17
98
21
47
10
74
56
111
38
79
32
34
91
110
105
26
81
40
84
109
122
125
28
85
36
96
123
68
108

> <PUBCHEM_MMFF94_PARTIAL_CHARGES>
44
1 1.35
10 0.31
11 -0.71
12 -0.71
13 -0.21
14 -0.15
15 0.14
16 -0.18
17 0.05
18 0.26
19 0.08
2 -0.65
20 -0.15
21 -0.11
22 0.05
23 -0.15
24 -0.05
25 0.14
26 -0.05
27 0.16
28 -0.3
29 0.14
3 -0.65
30 -0.3
31 0.14
32 0.26
33 0.26
34 0.15
35 0.15
36 0.15
37 0.15
38 0.15
39 0.15
4 0.33
40 0.15
41 0.15
42 0.15
43 0.15
44 0.15
5 0.58
6 -0.57
7 -0.71
8 -0.57
9 0.31

> <PUBCHEM_EFFECTIVE_ROTOR_COUNT>
4

> <PUBCHEM_PHARMACOPHORE_FEATURES>
13
1 11 acceptor
1 12 acceptor
1 2 acceptor
1 3 acceptor
1 7 acceptor
1 8 acceptor
3 4 6 15 cation
5 10 12 26 30 31 rings
5 4 6 13 15 19 rings
5 5 7 14 18 25 rings
5 9 11 24 28 29 rings
6 4 15 16 17 21 23 rings
6 8 14 18 20 22 27 rings

> <PUBCHEM_HEAVY_ATOM_COUNT>
33

> <PUBCHEM_ATOM_DEF_STEREO_COUNT>
0

> <PUBCHEM_ATOM_UDEF_STEREO_COUNT>
0

> <PUBCHEM_BOND_DEF_STEREO_COUNT>
0

> <PUBCHEM_BOND_UDEF_STEREO_COUNT>
0

> <PUBCHEM_ISOTOPIC_ATOM_COUNT>
0

> <PUBCHEM_COMPONENT_COUNT>
1

> <PUBCHEM_CACTVS_TAUTO_COUNT>
1

> <PUBCHEM_CONFORMER_ID>
0705741100000001

> <PUBCHEM_MMFF94_ENERGY>
64.0322

> <PUBCHEM_FEATURE_SELFOVERLAP>
66.222

> <PUBCHEM_SHAPE_FINGERPRINT>
10165383 225 15285355119715200136
10258939 38 12751242484548931263
10483366 6 18337673014176595095
10674148 151 17748824116757215148
10764073 3 17766797918898953000
11578080 2 14997427217685342588
11720765 8 18131064986814000073
1200032 147 17969786272853965609
12788726 201 18337675218127976824
14068700 675 17846780663926633720
14289585 56 17386002819626435373
14415361 349 18125465037783146054
14931854 50 18336264544113240261
15003188 33 18336834211548921716
15052358 14 18409450288605146655
15119646 57 14130490864652600118
15183329 4 18410575071873161871
15322687 12 18335696169953753023
15420108 30 17407980794292304536
15975801 100 17168689839521978381
16126227 98 8718242635003360078
16992727 255 18187929434869101308
17492 54 18187929443294933505
20465049 17 18260827124878741665
20609170 17 17391392788803259674
21458453 9 9511163162416793542
22440779 20 16303210576236854274
23559900 14 18129375058931898409
24893992 56 18408319991780830263
2637199 183 17968366940327299089
3027735 51 18057053419285222854
312425 83 17972603456981150092
3459 83 18341621394844521897
3729539 64 18410015416207609871
38570 142 17675923192678657177
4098825 35 18190468353066558446
437795 139 16127511822326901967
4394409 98 17703792526418966695
513532 50 18058427945889254747
57527295 17 17532369958345753042
57527452 28 16057162804422260518
5776283 40 18187932849421004964
58260988 587 14851880296969138353
613672 6 16128109947650981246
6376802 90 17827362395400842208
9689198 14 16298392348716287565

> <PUBCHEM_SHAPE_MULTIPOLES>
626.41
14.93
3.93
2.2
6.55
0.13
2.03
2.41
-14.19
-1.85
-0.34
0.05
-0.27
0.59

> <PUBCHEM_SHAPE_SELFOVERLAP>
1401.454

> <PUBCHEM_SHAPE_VOLUME>
337.9

> <PUBCHEM_COORDINATE_TYPE>
2
5
10

$$$$
5329150
  -OEChem-11282412143D

 51 54  0     0  0  0  0  0  0999 V2000
   -1.2784    0.8855   -1.3009 O   0  0  0  0  0  0  0  0  0  0  0  0
   -7.7562    2.5971   -0.7977 O   0  0  0  0  0  0  0  0  0  0  0  0
   -8.2544    1.0806    0.8154 O   0  0  0  0  0  0  0  0  0  0  0  0
   -2.6883   -1.9514   -0.5268 N   0  0  0  0  0  0  0  0  0  0  0  0
    1.0726    1.1099   -1.2545 N   0  0  0  0  0  0  0  0  0  0  0  0
   -4.3603   -0.7684    0.3317 C   0  0  0  0  0  0  0  0  0  0  0  0
   -3.1645   -0.4146    1.0042 C   0  0  0  0  0  0  0  0  0  0  0  0
   -2.1761   -1.1588    0.4480 C   0  0  0  0  0  0  0  0  0  0  0  0
   -4.0365   -1.7203   -0.6098 C   0  0  0  0  0  0  0  0  0  0  0  0
   -5.7075   -0.2190    0.5887 C   0  0  0  0  0  0  0  0  0  0  0  0
    0.1588   -0.4946    0.0979 C   0  0  0  0  0  0  0  0  0  0  0  0
   -0.7652   -1.2565    0.6867 C   0  0  0  0  0  0  0  0  0  0  0  0
    1.6065   -0.5211    0.2763 C   0  0  0  0  0  0  0  0  0  0  0  0
    2.1118    0.4724   -0.5676 C   0  0  0  0  0  0  0  0  0  0  0  0
   -3.0342    0.5731    2.0958 C   0  0  0  0  0  0  0  0  0  0  0  0
   -6.0594    1.0300   -0.2443 C   0  0  0  0  0  0  0  0  0  0  0  0
   -4.8736   -2.4406   -1.5883 C   0  0  0  0  0  0  0  0  0  0  0  0
   -0.1707    0.5743   -0.9034 C   0  0  0  0  0  0  0  0  0  0  0  0
    2.4556   -1.2838    1.0557 C   0  0  0  0  0  0  0  0  0  0  0  0
    3.4628    0.7415   -0.6669 C   0  0  0  0  0  0  0  0  0  0  0  0
    4.3270   -0.0250    0.1171 C   0  0  0  0  0  0  0  0  0  0  0  0
    3.8284   -1.0279    0.9701 C   0  0  0  0  0  0  0  0  0  0  0  0
    5.7529    0.2146    0.0542 C   0  0  0  0  0  0  0  0  0  0  0  0
   -7.4594    1.5460    0.0111 C   0  0  0  0  0  0  0  0  0  0  0  0
    6.3435    1.1374    0.9171 C   0  0  0  0  0  0  0  0  0  0  0  0
    6.5358   -0.4777   -0.8693 C   0  0  0  0  0  0  0  0  0  0  0  0
    7.7178    1.3683    0.8565 C   0  0  0  0  0  0  0  0  0  0  0  0
    7.9102   -0.2470   -0.9299 C   0  0  0  0  0  0  0  0  0  0  0  0
    8.5011    0.6760   -0.0670 C   0  0  0  0  0  0  0  0  0  0  0  0
   -6.4621   -0.9944    0.4004 H   0  0  0  0  0  0  0  0  0  0  0  0
   -5.8126    0.0238    1.6542 H   0  0  0  0  0  0  0  0  0  0  0  0
   -2.1711   -2.6046   -1.1009 H   0  0  0  0  0  0  0  0  0  0  0  0
   -0.4573   -2.0139    1.4035 H   0  0  0  0  0  0  0  0  0  0  0  0
   -3.4379    1.5434    1.7886 H   0  0  0  0  0  0  0  0  0  0  0  0
   -3.5821    0.2378    2.9825 H   0  0  0  0  0  0  0  0  0  0  0  0
   -1.9911    0.7286    2.3886 H   0  0  0  0  0  0  0  0  0  0  0  0
   -5.3539    1.8370   -0.0157 H   0  0  0  0  0  0  0  0  0  0  0  0
   -5.9776    0.7910   -1.3112 H   0  0  0  0  0  0  0  0  0  0  0  0
   -5.4909   -1.7394   -2.1591 H   0  0  0  0  0  0  0  0  0  0  0  0
   -4.2690   -3.0082   -2.3034 H   0  0  0  0  0  0  0  0  0  0  0  0
   -5.5385   -3.1436   -1.0765 H   0  0  0  0  0  0  0  0  0  0  0  0
    1.2186    1.8616   -1.9179 H   0  0  0  0  0  0  0  0  0  0  0  0
    2.0830   -2.0588    1.7162 H   0  0  0  0  0  0  0  0  0  0  0  0
    3.8292    1.5188   -1.3299 H   0  0  0  0  0  0  0  0  0  0  0  0
    4.5086   -1.6210    1.5786 H   0  0  0  0  0  0  0  0  0  0  0  0
    5.7474    1.6855    1.6430 H   0  0  0  0  0  0  0  0  0  0  0  0
    6.0911   -1.2006   -1.5492 H   0  0  0  0  0  0  0  0  0  0  0  0
    8.1780    2.0869    1.5283 H   0  0  0  0  0  0  0  0  0  0  0  0
    8.5203   -0.7859   -1.6488 H   0  0  0  0  0  0  0  0  0  0  0  0
    9.5711    0.8557   -0.1142 H   0  0  0  0  0  0  0  0  0  0  0  0
   -8.6673    2.9281   -0.6470 H   0  0  0  0  0  0  0  0  0  0  0  0
  1 18  2  0  0  0  0
  2 24  1  0  0  0  0
  2 51  1  0  0  0  0
  3 24  2  0  0  0  0
  4  8  1  0  0  0  0
  4  9  1  0  0  0  0
  4 32  1  0  0  0  0
  5 14  1  0  0  0  0
  5 18  1  0  0  0  0
  5 42  1  0  0  0  0
  6  7  1  0  0  0  0
  6  9  2  0  0  0  0
  6 10  1  0  0  0  0
  7  8  2  0  0  0  0
  7 15  1  0  0  0  0
  8 12  1  0  0  0  0
  9 17  1  0  0  0  0
 10 16  1  0  0  0  0
 10 30  1  0  0  0  0
 10 31  1  0  0  0  0
 11 12  2  0  0  0  0
 11 13  1  0  0  0  0
 11 18  1  0  0  0  0
 12 33  1  0  0  0  0
 13 14  2  0  0  0  0
 13 19  1  0  0  0  0
 14 20  1  0  0  0  0
 15 34  1  0  0  0  0
 15 35  1  0  0  0  0
 15 36  1  0  0  0  0
 16 24  1  0  0  0  0
 16 37  1  0  0  0  0
 16 38  1  0  0  0  0
 17 39  1  0  0  0  0
 17 40  1  0  0  0  0
 17 41  1  0  0  0  0
 19 22  2  0  0  0  0
 19 43  1  0  0  0  0
 20 21  2  0  0  0  0
 20 44  1  0  0  0  0
 21 22  1  0  0  0  0
 21 23  1  0  0  0  0
 22 45  1  0  0  0  0
 23 25  2  0  0  0  0
 23 26  1  0  0  0  0
 25 27  1  0  0  0  0
 25 46  1  0  0  0  0
 26 28  2  0  0  0  0
 26 47  1  0  0  0  0
 27 29  2  0  0  0  0
 27 48  1  0  0  0  0
 28 29  1  0  0  0  0
 28 49  1  0  0  0  0
 29 50  1  0  0  0  0
M  END
> <PUBCHEM_COMPOUND_CID>
5329150

> <PUBCHEM_CONFORMER_RMSD>
0.8

> <PUBCHEM_CONFORMER_DIVERSEORDER>
1
16
15
6
13
11
17
9
14
3
4
12
8
2
5
7
10

> <PUBCHEM_MMFF94_PARTIAL_CHARGES>
39
1 -0.57
10 0.18
11 -0.01
12 -0.11
13 0.03
14 0.12
15 0.18
16 0.06
17 0.18
18 0.62
19 -0.15
2 -0.65
20 -0.15
22 -0.15
24 0.66
25 -0.15
26 -0.15
27 -0.15
28 -0.15
29 -0.15
3 -0.57
32 0.27
33 0.15
4 0.03
42 0.37
43 0.15
44 0.15
45 0.15
46 0.15
47 0.15
48 0.15
49 0.15
5 -0.55
50 0.15
51 0.5
6 -0.18
7 -0.18
8 -0.2
9 -0.33

> <PUBCHEM_EFFECTIVE_ROTOR_COUNT>
5.2

> <PUBCHEM_PHARMACOPHORE_FEATURES>
11
1 1 acceptor
1 2 acceptor
1 3 acceptor
1 4 cation
1 4 donor
1 5 donor
3 2 3 24 anion
5 4 6 7 8 9 rings
5 5 11 13 14 18 rings
6 13 14 19 20 21 22 rings
6 23 25 26 27 28 29 rings

> <PUBCHEM_HEAVY_ATOM_COUNT>
29

> <PUBCHEM_ATOM_DEF_STEREO_COUNT>
0

> <PUBCHEM_ATOM_UDEF_STEREO_COUNT>
0

> <PUBCHEM_BOND_DEF_STEREO_COUNT>
1

> <PUBCHEM_BOND_UDEF_STEREO_COUNT>
0

> <PUBCHEM_ISOTOPIC_ATOM_COUNT>
0

> <PUBCHEM_COMPONENT_COUNT>
1

> <PUBCHEM_CACTVS_TAUTO_COUNT>
2

> <PUBCHEM_CONFORMER_ID>
005150FE00000001

> <PUBCHEM_MMFF94_ENERGY>
80.5248

> <PUBCHEM_FEATURE_SELFOVERLAP>
55.968

> <PUBCHEM_SHAPE_FINGERPRINT>
10 15 17530964657646410569
10299344 5 14634873063029161456
10906281 52 17676778625573487378
11135926 11 17240472615946391450
11181472 205 17774449256632406904
11315181 36 17704077325784298451
11578821 258 18130790113392291800
11719270 70 16226034614554743074
11991303 11 15195278785510242692
12236239 1 18342175604898458330
12838862 33 18041547096850540877
13914758 101 18411698798452693049
14028597 1 15791721967283849065
14251764 18 17676205771456694771
14394314 77 18334574638092389193
15131766 46 16985729104107956528
15183329 4 17313376855359379966
15461852 350 17560795563812775151
15604295 49 18411414050981045560
1577012 14 18408315588379445019
15849732 13 17274824688182382860
16087824 20 18114461142376526301
17093844 174 18341894125689960659
18335252 98 11818992981348573440
19315958 150 18342182137137598751
20505436 4 18408880716551555787
20511986 3 18412252935608191171
21033648 29 18270664477256912896
21150785 3 15051733083916185344
21298829 104 18334011679390329401
21304253 13 18260830422902747540
21315759 40 11815898967895540402
21756936 100 18186801392664822291
21792961 116 15698011717204352994
21792965 68 17417826006860533801
23559900 14 17418087767093719971
23569943 247 18265618676906643778
23576562 1 15194988531303776736
24771293 8 18189046672565431292
3178227 256 15502377833503294480
335352 9 17894915156507075823
3633792 109 18059581234781827834
4093350 32 18261109634895728738
4340502 62 14129053730272695962
44802255 64 18272366448442693911
4625314 4 18060419144852830590
484989 97 12391212955710613813
5028188 123 18339648940669022838
504579 68 17632856421345365514
5385378 56 17095799932351280018
54039377 194 10519691312241246085
5758199 1 17967250901359530178
6009941 240 18131354132596578207
6691757 9 17917719015684802323
999808 66 11241973672674681889

> <PUBCHEM_SHAPE_MULTIPOLES>
569.24
25.03
1.85
1.32
7.87
0.13
-0.13
-11.51
1.17
-3.54
0.41
-0.45
0
-0.06

> <PUBCHEM_SHAPE_SELFOVERLAP>
1259.252

> <PUBCHEM_SHAPE_VOLUME>
308.6

> <PUBCHEM_COORDINATE_TYPE>
2
5
10

$$$$
42642648
  -OEChem-11282412143D

 51 55  0     1  0  0  0  0  0999 V2000
    3.4792   -0.8032   -2.1847 Cl  0  0  0  0  0  0  0  0  0  0  0  0
    7.6956   -0.9098    0.4513 S   0  0  0  0  0  0  0  0  0  0  0  0
   -6.1390    2.8415    0.0669 O   0  0  0  0  0  0  0  0  0  0  0  0
    4.5482    1.0327   -0.0567 O   0  0  0  0  0  0  0  0  0  0  0  0
   -3.9934    2.2821   -0.4810 N   0  0  0  0  0  0  0  0  0  0  0  0
   -5.6064    0.6211    0.1222 N   0  0  0  0  0  0  0  0  0  0  0  0
   -0.6857   -0.6355    0.7792 N   0  0  0  0  0  0  0  0  0  0  0  0
   -2.6831   -4.1159   -0.2345 N   0  0  0  0  0  0  0  0  0  0  0  0
   -0.6581   -2.9489    0.3519 N   0  0  0  0  0  0  0  0  0  0  0  0
    7.4705    1.5564   -0.2897 N   0  0  0  0  0  0  0  0  0  0  0  0
   -4.1445    3.7329   -0.6738 C   0  0  1  0  0  0  0  0  0  0  0  0
   -5.4387    4.0765    0.0306 C   0  0  0  0  0  0  0  0  0  0  0  0
   -5.1767    1.8911   -0.1186 C   0  0  0  0  0  0  0  0  0  0  0  0
   -4.8614   -0.5719    0.0337 C   0  0  0  0  0  0  0  0  0  0  0  0
   -2.7551   -1.7575    0.1940 C   0  0  0  0  0  0  0  0  0  0  0  0
   -2.9427    4.4680   -0.1114 C   0  0  0  0  0  0  0  0  0  0  0  0
   -3.4928   -0.5642    0.2836 C   0  0  0  0  0  0  0  0  0  0  0  0
   -3.3789   -2.9689   -0.1463 C   0  0  0  0  0  0  0  0  0  0  0  0
   -1.3849   -1.8184    0.4315 C   0  0  0  0  0  0  0  0  0  0  0  0
   -5.4904   -1.7650   -0.3044 C   0  0  0  0  0  0  0  0  0  0  0  0
   -4.7497   -2.9475   -0.3915 C   0  0  0  0  0  0  0  0  0  0  0  0
    0.6367   -0.2185    0.5614 C   0  0  0  0  0  0  0  0  0  0  0  0
    1.3303   -0.6582   -0.5661 C   0  0  0  0  0  0  0  0  0  0  0  0
    1.2572    0.6361    1.4725 C   0  0  0  0  0  0  0  0  0  0  0  0
   -1.3607   -4.0437    0.0195 C   0  0  0  0  0  0  0  0  0  0  0  0
    3.2648    0.6115    0.1285 C   0  0  0  0  0  0  0  0  0  0  0  0
    2.6443   -0.2431   -0.7827 C   0  0  0  0  0  0  0  0  0  0  0  0
    2.5713    1.0511    1.2562 C   0  0  0  0  0  0  0  0  0  0  0  0
    5.4916    0.6981    0.9588 C   0  0  0  0  0  0  0  0  0  0  0  0
    6.8547    0.5821    0.3422 C   0  0  0  0  0  0  0  0  0  0  0  0
    8.9982   -0.2110   -0.4181 C   0  0  0  0  0  0  0  0  0  0  0  0
    8.6995    1.1000   -0.7245 C   0  0  0  0  0  0  0  0  0  0  0  0
   -4.2284    3.9339   -1.7489 H   0  0  0  0  0  0  0  0  0  0  0  0
   -5.2971    4.4292    1.0580 H   0  0  0  0  0  0  0  0  0  0  0  0
   -6.0202    4.8209   -0.5216 H   0  0  0  0  0  0  0  0  0  0  0  0
   -2.8002    4.2459    0.9520 H   0  0  0  0  0  0  0  0  0  0  0  0
   -3.0597    5.5505   -0.2240 H   0  0  0  0  0  0  0  0  0  0  0  0
   -2.0281    4.1655   -0.6325 H   0  0  0  0  0  0  0  0  0  0  0  0
   -6.6019    0.4835    0.2711 H   0  0  0  0  0  0  0  0  0  0  0  0
   -3.0012    0.3543    0.5839 H   0  0  0  0  0  0  0  0  0  0  0  0
   -6.5585   -1.7930   -0.5045 H   0  0  0  0  0  0  0  0  0  0  0  0
   -5.2658   -3.8680   -0.6580 H   0  0  0  0  0  0  0  0  0  0  0  0
   -1.1661   -0.0881    1.4880 H   0  0  0  0  0  0  0  0  0  0  0  0
    0.8503   -1.3133   -1.2896 H   0  0  0  0  0  0  0  0  0  0  0  0
    0.7279    0.9876    2.3547 H   0  0  0  0  0  0  0  0  0  0  0  0
   -0.8057   -4.9710   -0.0533 H   0  0  0  0  0  0  0  0  0  0  0  0
    3.0373    1.7239    1.9708 H   0  0  0  0  0  0  0  0  0  0  0  0
    5.2057   -0.2313    1.4682 H   0  0  0  0  0  0  0  0  0  0  0  0
    5.5097    1.5043    1.7016 H   0  0  0  0  0  0  0  0  0  0  0  0
    9.8904   -0.7725   -0.6551 H   0  0  0  0  0  0  0  0  0  0  0  0
    9.3490    1.7722   -1.2687 H   0  0  0  0  0  0  0  0  0  0  0  0
  1 27  1  0  0  0  0
  2 30  1  0  0  0  0
  2 31  1  0  0  0  0
  3 12  1  0  0  0  0
  3 13  1  0  0  0  0
  4 26  1  0  0  0  0
  4 29  1  0  0  0  0
  5 11  1  0  0  0  0
  5 13  2  0  0  0  0
  6 13  1  0  0  0  0
  6 14  1  0  0  0  0
  6 39  1  0  0  0  0
  7 19  1  0  0  0  0
  7 22  1  0  0  0  0
  7 43  1  0  0  0  0
  8 18  1  0  0  0  0
  8 25  2  0  0  0  0
  9 19  2  0  0  0  0
  9 25  1  0  0  0  0
 10 30  2  0  0  0  0
 10 32  1  0  0  0  0
 11 12  1  0  0  0  0
 11 16  1  0  0  0  0
 11 33  1  0  0  0  0
 12 34  1  0  0  0  0
 12 35  1  0  0  0  0
 14 17  2  0  0  0  0
 14 20  1  0  0  0  0
 15 17  1  0  0  0  0
 15 18  2  0  0  0  0
 15 19  1  0  0  0  0
 16 36  1  0  0  0  0
 16 37  1  0  0  0  0
 16 38  1  0  0  0  0
 17 40  1  0  0  0  0
 18 21  1  0  0  0  0
 20 21  2  0  0  0  0
 20 41  1  0  0  0  0
 21 42  1  0  0  0  0
 22 23  2  0  0  0  0
 22 24  1  0  0  0  0
 23 27  1  0  0  0  0
 23 44  1  0  0  0  0
 24 28  2  0  0  0  0
 24 45  1  0  0  0  0
 25 46  1  0  0  0  0
 26 27  2  0  0  0  0
 26 28  1  0  0  0  0
 28 47  1  0  0  0  0
 29 30  1  0  0  0  0
 29 48  1  0  0  0  0
 29 49  1  0  0  0  0
 31 32  2  0  0  0  0
 31 50  1  0  0  0  0
 32 51  1  0  0  0  0
M  END
> <PUBCHEM_COMPOUND_CID>
42642648

> <PUBCHEM_CONFORMER_RMSD>
1.2

> <PUBCHEM_CONFORMER_DIVERSEORDER>
1
57
99
13
54
93
53
27
89
91
103
76
51
4
102
80
69
90
3
47
72
20
74
105
109
92
42
35
88
110
22
12
71
97
59
101
104
28
64
21
58
67
107
95
56
111
31
73
98
43
85
112
82
94
61
19
18
70
39
79
16
65
34
60
7
11
55
81
77
49
84
29
24
36
33
78
46
30
17
8
83
87
75
41
32
37
44
15
100
10
63
86
26
9
25
45
106
62
68
5
2
52
50
38
66
6
108
96
23
48
40
14

> <PUBCHEM_MMFF94_PARTIAL_CHARGES>
41
1 -0.18
10 -0.57
11 0.25
12 0.28
13 0.65
14 0.1
17 -0.15
18 0.31
19 0.41
2 -0.08
20 -0.15
21 -0.15
22 0.1
23 -0.15
24 -0.15
25 0.47
26 0.08
27 0.18
28 -0.15
29 0.46
3 -0.43
30 0.2
31 -0.11
32 0.08
39 0.4
4 -0.36
40 0.15
41 0.15
42 0.15
43 0.4
44 0.15
45 0.15
46 0.15
47 0.15
5 -0.7
50 0.15
51 0.15
6 -0.55
7 -0.6
8 -0.62
9 -0.62

> <PUBCHEM_EFFECTIVE_ROTOR_COUNT>
7.6

> <PUBCHEM_PHARMACOPHORE_FEATURES>
12
1 10 acceptor
1 4 acceptor
1 6 donor
1 7 donor
3 5 6 13 cation
3 7 9 19 cation
3 8 9 25 cation
5 2 10 30 31 32 rings
5 3 5 11 12 13 rings
6 14 15 17 18 20 21 rings
6 22 23 24 26 27 28 rings
6 8 9 15 18 19 25 rings

> <PUBCHEM_HEAVY_ATOM_COUNT>
32

> <PUBCHEM_ATOM_DEF_STEREO_COUNT>
1

> <PUBCHEM_ATOM_UDEF_STEREO_COUNT>
0

> <PUBCHEM_BOND_DEF_STEREO_COUNT>
0

> <PUBCHEM_BOND_UDEF_STEREO_COUNT>
0

> <PUBCHEM_ISOTOPIC_ATOM_COUNT>
0

> <PUBCHEM_COMPONENT_COUNT>
1

> <PUBCHEM_CACTVS_TAUTO_COUNT>
6

> <PUBCHEM_CONFORMER_ID>
028AACD800000001

> <PUBCHEM_MMFF94_ENERGY>
106.5219

> <PUBCHEM_FEATURE_SELFOVERLAP>
61.071

> <PUBCHEM_SHAPE_FINGERPRINT>
100830 39 18410292506149318264
10165383 225 18272092674347418385
10190206 1 18341037559493620109
10411042 1 17977665639540739131
10580692 12 18409448073230209722
10670039 82 18408598176274307245
10815517 723 17894910724475684868
10951579 204 18267040392305567052
11103572 95 18268982113193405210
11211813 163 18410573955514013090
11434127 23 18130220446262649205
12107183 9 18118387454747683746
12645989 146 18056192707886804823
12758862 11 18200308947991706752
13761468 95 17968924306717819141
13885169 127 18410572916543409978
13914758 101 18408605864540080434
14040221 137 18198078980531613385
14294032 229 17968372347813029212
14856354 85 18337673138915704983
15021287 119 17240204343624841044
15064981 113 18270664420678708735
15152005 290 18337952278063371453
15183329 4 17676758864766529714
15230672 131 18337948992397689426
15297060 5 18342456985533932977
15328829 1 17385443224321461492
15419008 42 17987805107605391566
15419008 91 17988065791204903248
15439362 3 18123189000888486635
15604295 49 18268144439846717832
15890870 6 18337668617043389005
19304152 47 17458910323795102681
20771845 165 18269846336814586407
21033650 10 18334017215365973203
21133410 127 17682958795629187493
21859007 373 18342740698193327334
21927370 108 18120662585720876683
23522609 53 17749402481454049324
23559900 14 17985259926991538634
23569943 247 16300042690374783554
3388396 114 18268123441497205487
4098825 35 18410292510849980212
4107672 100 18410012152417028232
4144715 1 18192712478496496088
4173938 306 17560786716159299514
4353968 344 18272642480920861263
44575985 48 17244129432643847173
5265222 85 18339923839776873050
5283173 99 18341613732633344066
6376802 90 18341339937243437790
6700243 42 17694823934640774975
7808743 9 18409443662193509737

> <PUBCHEM_SHAPE_MULTIPOLES>
622.64
22.56
5.12
1.07
47.11
1.45
-0.2
10.56
-2.53
-13.52
-0.53
1.19
0
0.42

> <PUBCHEM_SHAPE_SELFOVERLAP>
1348.237

> <PUBCHEM_SHAPE_VOLUME>
345.3

> <PUBCHEM_COORDINATE_TYPE>
2
5
10

$$$$
78209992
  -OEChem-11282412143D

 55 58  0     1  0  0  0  0  0999 V2000
    5.6947    4.2687    1.2870 Cl  0  0  0  0  0  0  0  0  0  0  0  0
    3.5991    2.2829    1.9153 F   0  0  0  0  0  0  0  0  0  0  0  0
   -2.2161   -0.6200    0.4738 O   0  0  0  0  0  0  0  0  0  0  0  0
   -2.2422   -0.3055   -1.8206 O   0  0  0  0  0  0  0  0  0  0  0  0
   -2.5211   -3.3676    0.0382 O   0  0  0  0  0  0  0  0  0  0  0  0
   -3.8267    0.7547   -0.4857 N   0  0  0  0  0  0  0  0  0  0  0  0
   -5.7905    2.8038   -0.0623 N   0  0  2  0  0  0  0  0  0  0  0  0
    2.8342    0.1057    0.3862 N   0  0  0  0  0  0  0  0  0  0  0  0
    2.1983   -3.9345   -0.2472 N   0  0  0  0  0  0  0  0  0  0  0  0
    3.6843   -2.0535   -0.0014 N   0  0  0  0  0  0  0  0  0  0  0  0
   -4.5142    0.8524    0.8164 C   0  0  1  0  0  0  0  0  0  0  0  0
   -5.0066    2.2879    1.0690 C   0  0  0  0  0  0  0  0  0  0  0  0
   -4.4845    1.4056   -1.6191 C   0  0  0  0  0  0  0  0  0  0  0  0
   -4.9646    2.8140   -1.2775 C   0  0  0  0  0  0  0  0  0  0  0  0
   -5.6489   -0.1731    0.9020 C   0  0  0  0  0  0  0  0  0  0  0  0
   -6.2891    4.1476    0.2289 C   0  0  0  0  0  0  0  0  0  0  0  0
   -2.7198   -0.0743   -0.7104 C   0  0  0  0  0  0  0  0  0  0  0  0
   -1.1089   -1.4550    0.2929 C   0  0  0  0  0  0  0  0  0  0  0  0
    0.1735   -0.9165    0.3280 C   0  0  0  0  0  0  0  0  0  0  0  0
   -1.2747   -2.8186    0.0773 C   0  0  0  0  0  0  0  0  0  0  0  0
    1.2909   -1.7497    0.1463 C   0  0  0  0  0  0  0  0  0  0  0  0
    1.1365   -3.1284   -0.0722 C   0  0  0  0  0  0  0  0  0  0  0  0
   -0.1583   -3.6406   -0.1025 C   0  0  0  0  0  0  0  0  0  0  0  0
    2.5994   -1.2751    0.1700 C   0  0  0  0  0  0  0  0  0  0  0  0
    3.8539    0.9712   -0.0401 C   0  0  0  0  0  0  0  0  0  0  0  0
    3.4143   -3.3533   -0.2024 C   0  0  0  0  0  0  0  0  0  0  0  0
   -3.0631   -3.8326    1.2727 C   0  0  0  0  0  0  0  0  0  0  0  0
    4.2219    2.0623    0.7473 C   0  0  0  0  0  0  0  0  0  0  0  0
    4.4993    0.7381   -1.2545 C   0  0  0  0  0  0  0  0  0  0  0  0
    5.2354    2.9201    0.3202 C   0  0  0  0  0  0  0  0  0  0  0  0
    5.5128    1.5960   -1.6814 C   0  0  0  0  0  0  0  0  0  0  0  0
    5.8808    2.6872   -0.8942 C   0  0  0  0  0  0  0  0  0  0  0  0
   -3.8013    0.6100    1.6124 H   0  0  0  0  0  0  0  0  0  0  0  0
   -5.6122    2.3002    1.9840 H   0  0  0  0  0  0  0  0  0  0  0  0
   -4.1380    2.9360    1.2514 H   0  0  0  0  0  0  0  0  0  0  0  0
   -5.3301    0.7714   -1.9112 H   0  0  0  0  0  0  0  0  0  0  0  0
   -3.8040    1.4465   -2.4764 H   0  0  0  0  0  0  0  0  0  0  0  0
   -4.0975    3.4759   -1.1501 H   0  0  0  0  0  0  0  0  0  0  0  0
   -5.5462    3.1954   -2.1253 H   0  0  0  0  0  0  0  0  0  0  0  0
   -5.2644   -1.1877    0.7504 H   0  0  0  0  0  0  0  0  0  0  0  0
   -6.1286   -0.1382    1.8856 H   0  0  0  0  0  0  0  0  0  0  0  0
   -6.4189    0.0024    0.1438 H   0  0  0  0  0  0  0  0  0  0  0  0
   -6.9347    4.1340    1.1141 H   0  0  0  0  0  0  0  0  0  0  0  0
   -6.9020    4.5178   -0.6004 H   0  0  0  0  0  0  0  0  0  0  0  0
   -5.4777    4.8632    0.4045 H   0  0  0  0  0  0  0  0  0  0  0  0
    0.2751    0.1533    0.4909 H   0  0  0  0  0  0  0  0  0  0  0  0
   -0.3075   -4.7061   -0.2711 H   0  0  0  0  0  0  0  0  0  0  0  0
    2.2806    0.4866    1.1489 H   0  0  0  0  0  0  0  0  0  0  0  0
    4.2656   -4.0080   -0.3443 H   0  0  0  0  0  0  0  0  0  0  0  0
   -4.0597   -4.2380    1.0780 H   0  0  0  0  0  0  0  0  0  0  0  0
   -3.1546   -3.0086    1.9875 H   0  0  0  0  0  0  0  0  0  0  0  0
   -2.4372   -4.6268    1.6918 H   0  0  0  0  0  0  0  0  0  0  0  0
    4.2217   -0.0961   -1.8931 H   0  0  0  0  0  0  0  0  0  0  0  0
    6.0132    1.4166   -2.6286 H   0  0  0  0  0  0  0  0  0  0  0  0
    6.6718    3.3475   -1.2404 H   0  0  0  0  0  0  0  0  0  0  0  0
  1 30  1  0  0  0  0
  2 28  1  0  0  0  0
  3 17  1  0  0  0  0
  3 18  1  0  0  0  0
  4 17  2  0  0  0  0
  5 20  1  0  0  0  0
  5 27  1  0  0  0  0
  6 11  1  0  0  0  0
  6 13  1  0  0  0  0
  6 17  1  0  0  0  0
  7 12  1  0  0  0  0
  7 14  1  0  0  0  0
  7 16  1  0  0  0  0
  8 24  1  0  0  0  0
  8 25  1  0  0  0  0
  8 48  1  0  0  0  0
  9 22  1  0  0  0  0
  9 26  2  0  0  0  0
 10 24  2  0  0  0  0
 10 26  1  0  0  0  0
 11 12  1  0  0  0  0
 11 15  1  0  0  0  0
 11 33  1  0  0  0  0
 12 34  1  0  0  0  0
 12 35  1  0  0  0  0
 13 14  1  0  0  0  0
 13 36  1  0  0  0  0
 13 37  1  0  0  0  0
 14 38  1  0  0  0  0
 14 39  1  0  0  0  0
 15 40  1  0  0  0  0
 15 41  1  0  0  0  0
 15 42  1  0  0  0  0
 16 43  1  0  0  0  0
 16 44  1  0  0  0  0
 16 45  1  0  0  0  0
 18 19  1  0  0  0  0
 18 20  2  0  0  0  0
 19 21  2  0  0  0  0
 19 46  1  0  0  0  0
 20 23  1  0  0  0  0
 21 22  1  0  0  0  0
 21 24  1  0  0  0  0
 22 23  2  0  0  0  0
 23 47  1  0  0  0  0
 25 28  2  0  0  0  0
 25 29  1  0  0  0  0
 26 49  1  0  0  0  0
 27 50  1  0  0  0  0
 27 51  1  0  0  0  0
 27 52  1  0  0  0  0
 28 30  1  0  0  0  0
 29 31  2  0  0  0  0
 29 53  1  0  0  0  0
 30 32  2  0  0  0  0
 31 32  1  0  0  0  0
 31 54  1  0  0  0  0
 32 55  1  0  0  0  0
M  END
> <PUBCHEM_COMPOUND_CID>
78209992

> <PUBCHEM_CONFORMER_RMSD>
1.2

> <PUBCHEM_CONFORMER_DIVERSEORDER>
1
47
24
45
70
7
85
83
74
69
30
43
75
12
60
105
11
90
95
72
28
76
103
87
25
8
64
99
58
96
35
102
41
79
101
38
34
82
48
98
46
65
50
61
59
55
89
49
42
29
22
92
77
10
71
93
44
26
52
53
78
15
86
54
104
33
23
21
73
13
40
94
63
84
100
91
51
88
9
37
39
16
18
81
62
20
6
67
56
19
80
36
3
66
14
97
57
17
32
4
27
2
31
68
5

> <PUBCHEM_MMFF94_PARTIAL_CHARGES>
37
1 -0.18
10 -0.62
11 0.3
12 0.27
13 0.3
14 0.27
16 0.27
17 0.78
18 0.08
19 -0.15
2 -0.19
20 0.08
22 0.31
23 -0.15
24 0.41
25 0.1
26 0.47
27 0.28
28 0.19
29 -0.15
3 -0.23
30 0.18
31 -0.15
32 -0.15
4 -0.57
46 0.15
47 0.15
48 0.4
49 0.15
5 -0.36
53 0.15
54 0.15
55 0.15
6 -0.66
7 -0.81
8 -0.6
9 -0.62

> <PUBCHEM_EFFECTIVE_ROTOR_COUNT>
7.2

> <PUBCHEM_PHARMACOPHORE_FEATURES>
10
1 4 acceptor
1 5 acceptor
1 7 cation
1 8 donor
3 8 10 24 cation
3 9 10 26 cation
6 18 19 20 21 22 23 rings
6 25 28 29 30 31 32 rings
6 6 7 11 12 13 14 rings
6 9 10 21 22 24 26 rings

> <PUBCHEM_HEAVY_ATOM_COUNT>
32

> <PUBCHEM_ATOM_DEF_STEREO_COUNT>
1

> <PUBCHEM_ATOM_UDEF_STEREO_COUNT>
0

> <PUBCHEM_BOND_DEF_STEREO_COUNT>
0

> <PUBCHEM_BOND_UDEF_STEREO_COUNT>
0

> <PUBCHEM_ISOTOPIC_ATOM_COUNT>
0

> <PUBCHEM_COMPONENT_COUNT>
1

> <PUBCHEM_CACTVS_TAUTO_COUNT>
3

> <PUBCHEM_CONFORMER_ID>
04A963C800000001

> <PUBCHEM_MMFF94_ENERGY>
110.954

> <PUBCHEM_FEATURE_SELFOVERLAP>
50.919

> <PUBCHEM_SHAPE_FINGERPRINT>
10050765 1 18409733971359571410
10675989 125 18341046303414733280
10937287 8 18411132554412726190
11059845 2 18122593263650477544
11135609 201 18268986660238866738
11331351 85 17625526901327222166
11578080 2 18335717038899592558
11720765 8 17915188923538584606
1200032 147 18187373103871537952
12107183 9 18263060224921766130
12390115 104 18267596864788707610
12422481 6 17385716989631481388
12758862 56 18045782282940912602
12925494 130 18408887338619992049
13140716 1 18335416868284066858
13617811 41 17832141997642192567
13878862 14 18119230797361764285
13944108 23 18124040027120484492
14068700 686 18266468774343743991
14223995 32 18341325687259348392
14251764 75 18410577275181263645
14790565 3 18339645512773754857
14848178 96 18412256212172365633
15198563 99 17838614818537502055
15274700 21 18269565000062481811
15297060 5 18262537973857551812
15513586 35 16808993638411360052
19304671 126 17704080594482017288
19309040 13 18272649039092783589
20691028 202 18409169883482325477
22122407 14 17982179920582768937
23559900 14 18342172216422989218
27425 322 18197213651683927783
2747138 104 17756722088530639330
283562 15 18120366820496519203
2838139 119 18412820317893774940
376196 1 18411417328256999810
4760202 70 18271514340201373101
508706 21 18052816137715717042
5104073 3 18113616768188806155
5252454 2 18335979839642895396
550186 72 18337392738440408285
552612 73 18338248140531632051
57527585 21 18196352930909688719
6371009 1 18197208144733903296
7288768 16 18113338639033738987
7808743 9 18334858363257078728
9849439 229 18409721876556683088

> <PUBCHEM_SHAPE_MULTIPOLES>
610.63
16.1
6.48
1.34
2.21
1.15
-0.19
-23.5
-0.11
-0.33
1.18
-0.14
-0.92
1.91

> <PUBCHEM_SHAPE_SELFOVERLAP>
1310.669

> <PUBCHEM_SHAPE_VOLUME>
338.7

> <PUBCHEM_COORDINATE_TYPE>
2
5
10

$$$$
138678712
  -OEChem-11282412143D

 86 90  0     1  0  0  0  0  0999 V2000
    7.2024    1.2717   -0.2087 Cl  0  0  0  0  0  0  0  0  0  0  0  0
    5.1279   -3.3734    0.2040 S   0  0  0  0  0  0  0  0  0  0  0  0
   -9.9033   -1.8574   -0.4578 O   0  0  0  0  0  0  0  0  0  0  0  0
   -0.6129    4.3864    0.1870 O   0  0  0  0  0  0  0  0  0  0  0  0
    5.0749   -4.8257    0.1364 O   0  0  0  0  0  0  0  0  0  0  0  0
    6.4016   -2.6853    0.0651 O   0  0  0  0  0  0  0  0  0  0  0  0
   -5.9237   -0.6581    0.1344 N   0  0  2  0  0  0  0  0  0  0  0  0
    1.7477    2.9874    0.8082 N   0  0  0  0  0  0  0  0  0  0  0  0
    4.7150   -0.4337   -0.4741 N   0  0  0  0  0  0  0  0  0  0  0  0
    3.2177    1.2800    0.1680 N   0  0  0  0  0  0  0  0  0  0  0  0
    4.0384    3.4730    0.7377 N   0  0  0  0  0  0  0  0  0  0  0  0
   -7.1075   -1.5141    0.1377 C   0  0  0  0  0  0  0  0  0  0  0  0
   -7.6210   -1.7502   -1.2862 C   0  0  0  0  0  0  0  0  0  0  0  0
   -8.2123   -0.8920    0.9966 C   0  0  0  0  0  0  0  0  0  0  0  0
   -4.8712   -1.2141   -0.7212 C   0  0  0  0  0  0  0  0  0  0  0  0
   -5.4258   -0.4529    1.5033 C   0  0  0  0  0  0  0  0  0  0  0  0
   -3.7111   -0.2138   -0.8366 C   0  0  0  0  0  0  0  0  0  0  0  0
   -8.9296   -2.5319   -1.2548 C   0  0  0  0  0  0  0  0  0  0  0  0
   -9.4882   -1.7213    0.9014 C   0  0  0  0  0  0  0  0  0  0  0  0
   -3.2722    0.3388    0.5007 C   0  0  0  0  0  0  0  0  0  0  0  0
   -4.0790    0.2160    1.5716 C   0  0  0  0  0  0  0  0  0  0  0  0
   -1.9538    1.0113    0.5857 C   0  0  0  0  0  0  0  0  0  0  0  0
   -0.7954    0.2986    0.8954 C   0  0  0  0  0  0  0  0  0  0  0  0
   -1.8854    2.3843    0.3491 C   0  0  0  0  0  0  0  0  0  0  0  0
   -0.6589    3.0445    0.4217 C   0  0  0  0  0  0  0  0  0  0  0  0
    0.4312    0.9588    0.9682 C   0  0  0  0  0  0  0  0  0  0  0  0
    0.4996    2.3317    0.7313 C   0  0  0  0  0  0  0  0  0  0  0  0
   -0.8311   -1.1733    1.1551 C   0  0  0  0  0  0  0  0  0  0  0  0
   -1.0516    4.8347   -1.0937 C   0  0  0  0  0  0  0  0  0  0  0  0
    4.4120   -2.8975    1.7596 C   0  0  0  0  0  0  0  0  0  0  0  0
    3.0651    2.5595    0.5591 C   0  0  0  0  0  0  0  0  0  0  0  0
    4.0328   -2.7150   -0.9936 C   0  0  0  0  0  0  0  0  0  0  0  0
   -2.2453    5.7608   -0.9182 C   0  0  0  0  0  0  0  0  0  0  0  0
    0.1022    5.5256   -1.8047 C   0  0  0  0  0  0  0  0  0  0  0  0
    3.9353   -1.3405   -1.2101 C   0  0  0  0  0  0  0  0  0  0  0  0
    2.9970   -3.4445    1.8779 C   0  0  0  0  0  0  0  0  0  0  0  0
    5.2887   -3.3701    2.9098 C   0  0  0  0  0  0  0  0  0  0  0  0
    3.2473   -3.5958   -1.7372 C   0  0  0  0  0  0  0  0  0  0  0  0
    4.4927    0.9031   -0.0615 C   0  0  0  0  0  0  0  0  0  0  0  0
    3.0522   -0.8468   -2.1704 C   0  0  0  0  0  0  0  0  0  0  0  0
    2.3642   -3.1020   -2.6974 C   0  0  0  0  0  0  0  0  0  0  0  0
    2.2665   -1.7275   -2.9140 C   0  0  0  0  0  0  0  0  0  0  0  0
    5.5785    1.7421    0.0845 C   0  0  0  0  0  0  0  0  0  0  0  0
    5.2882    3.0287    0.4906 C   0  0  0  0  0  0  0  0  0  0  0  0
   -6.8537   -2.4948    0.5670 H   0  0  0  0  0  0  0  0  0  0  0  0
   -6.9267   -2.3360   -1.8952 H   0  0  0  0  0  0  0  0  0  0  0  0
   -7.7908   -0.7873   -1.7850 H   0  0  0  0  0  0  0  0  0  0  0  0
   -8.4236    0.1267    0.6461 H   0  0  0  0  0  0  0  0  0  0  0  0
   -7.9381   -0.8368    2.0549 H   0  0  0  0  0  0  0  0  0  0  0  0
   -5.1974   -1.3774   -1.7513 H   0  0  0  0  0  0  0  0  0  0  0  0
   -4.5083   -2.1746   -0.3311 H   0  0  0  0  0  0  0  0  0  0  0  0
   -5.3588   -1.3993    2.0552 H   0  0  0  0  0  0  0  0  0  0  0  0
   -6.1071    0.2113    2.0462 H   0  0  0  0  0  0  0  0  0  0  0  0
   -4.0102    0.6252   -1.4788 H   0  0  0  0  0  0  0  0  0  0  0  0
   -2.8713   -0.7148   -1.3332 H   0  0  0  0  0  0  0  0  0  0  0  0
   -8.7806   -3.5465   -0.8666 H   0  0  0  0  0  0  0  0  0  0  0  0
   -9.3341   -2.6221   -2.2680 H   0  0  0  0  0  0  0  0  0  0  0  0
  -10.2965   -1.2249    1.4478 H   0  0  0  0  0  0  0  0  0  0  0  0
   -9.3526   -2.7158    1.3426 H   0  0  0  0  0  0  0  0  0  0  0  0
   -3.7649    0.5939    2.5414 H   0  0  0  0  0  0  0  0  0  0  0  0
   -2.7921    2.9382    0.1185 H   0  0  0  0  0  0  0  0  0  0  0  0
    1.3073    0.3878    1.2582 H   0  0  0  0  0  0  0  0  0  0  0  0
   -1.4677   -1.3989    2.0168 H   0  0  0  0  0  0  0  0  0  0  0  0
   -1.1998   -1.7133    0.2772 H   0  0  0  0  0  0  0  0  0  0  0  0
    0.1644   -1.5715    1.3798 H   0  0  0  0  0  0  0  0  0  0  0  0
    1.6818    3.9896    0.9590 H   0  0  0  0  0  0  0  0  0  0  0  0
   -1.3620    3.9916   -1.7261 H   0  0  0  0  0  0  0  0  0  0  0  0
    4.3781   -1.8046    1.7902 H   0  0  0  0  0  0  0  0  0  0  0  0
   -2.6080    6.1287   -1.8830 H   0  0  0  0  0  0  0  0  0  0  0  0
   -3.0687    5.2481   -0.4113 H   0  0  0  0  0  0  0  0  0  0  0  0
   -1.9814    6.6214   -0.2935 H   0  0  0  0  0  0  0  0  0  0  0  0
    0.9445    4.8358   -1.9255 H   0  0  0  0  0  0  0  0  0  0  0  0
   -0.1967    5.8877   -2.7930 H   0  0  0  0  0  0  0  0  0  0  0  0
    0.4721    6.3730   -1.2169 H   0  0  0  0  0  0  0  0  0  0  0  0
    2.9724   -4.5358    1.7898 H   0  0  0  0  0  0  0  0  0  0  0  0
    2.3331   -3.0314    1.1132 H   0  0  0  0  0  0  0  0  0  0  0  0
    2.5656   -3.1808    2.8498 H   0  0  0  0  0  0  0  0  0  0  0  0
    5.3782   -4.4617    2.9246 H   0  0  0  0  0  0  0  0  0  0  0  0
    6.2997   -2.9566    2.8308 H   0  0  0  0  0  0  0  0  0  0  0  0
    4.8728   -3.0524    3.8717 H   0  0  0  0  0  0  0  0  0  0  0  0
    3.2973   -4.6706   -1.5907 H   0  0  0  0  0  0  0  0  0  0  0  0
    5.5671   -0.8220   -0.0828 H   0  0  0  0  0  0  0  0  0  0  0  0
    2.9658    0.2180   -2.3699 H   0  0  0  0  0  0  0  0  0  0  0  0
    1.7522   -3.7874   -3.2764 H   0  0  0  0  0  0  0  0  0  0  0  0
    1.5806   -1.3435   -3.6633 H   0  0  0  0  0  0  0  0  0  0  0  0
    6.0676    3.7705    0.6361 H   0  0  0  0  0  0  0  0  0  0  0  0
  1 43  1  0  0  0  0
  2  5  2  0  0  0  0
  2  6  2  0  0  0  0
  2 30  1  0  0  0  0
  2 32  1  0  0  0  0
  3 18  1  0  0  0  0
  3 19  1  0  0  0  0
  4 25  1  0  0  0  0
  4 29  1  0  0  0  0
  7 12  1  0  0  0  0
  7 15  1  0  0  0  0
  7 16  1  0  0  0  0
  8 27  1  0  0  0  0
  8 31  1  0  0  0  0
  8 66  1  0  0  0  0
  9 35  1  0  0  0  0
  9 39  1  0  0  0  0
  9 82  1  0  0  0  0
 10 31  1  0  0  0  0
 10 39  2  0  0  0  0
 11 31  2  0  0  0  0
 11 44  1  0  0  0  0
 12 13  1  0  0  0  0
 12 14  1  0  0  0  0
 12 45  1  0  0  0  0
 13 18  1  0  0  0  0
 13 46  1  0  0  0  0
 13 47  1  0  0  0  0
 14 19  1  0  0  0  0
 14 48  1  0  0  0  0
 14 49  1  0  0  0  0
 15 17  1  0  0  0  0
 15 50  1  0  0  0  0
 15 51  1  0  0  0  0
 16 21  1  0  0  0  0
 16 52  1  0  0  0  0
 16 53  1  0  0  0  0
 17 20  1  0  0  0  0
 17 54  1  0  0  0  0
 17 55  1  0  0  0  0
 18 56  1  0  0  0  0
 18 57  1  0  0  0  0
 19 58  1  0  0  0  0
 19 59  1  0  0  0  0
 20 21  2  0  0  0  0
 20 22  1  0  0  0  0
 21 60  1  0  0  0  0
 22 23  1  0  0  0  0
 22 24  2  0  0  0  0
 23 26  2  0  0  0  0
 23 28  1  0  0  0  0
 24 25  1  0  0  0  0
 24 61  1  0  0  0  0
 25 27  2  0  0  0  0
 26 27  1  0  0  0  0
 26 62  1  0  0  0  0
 28 63  1  0  0  0  0
 28 64  1  0  0  0  0
 28 65  1  0  0  0  0
 29 33  1  0  0  0  0
 29 34  1  0  0  0  0
 29 67  1  0  0  0  0
 30 36  1  0  0  0  0
 30 37  1  0  0  0  0
 30 68  1  0  0  0  0
 32 35  1  0  0  0  0
 32 38  2  0  0  0  0
 33 69  1  0  0  0  0
 33 70  1  0  0  0  0
 33 71  1  0  0  0  0
 34 72  1  0  0  0  0
 34 73  1  0  0  0  0
 34 74  1  0  0  0  0
 35 40  2  0  0  0  0
 36 75  1  0  0  0  0
 36 76  1  0  0  0  0
 36 77  1  0  0  0  0
 37 78  1  0  0  0  0
 37 79  1  0  0  0  0
 37 80  1  0  0  0  0
 38 41  1  0  0  0  0
 38 81  1  0  0  0  0
 39 43  1  0  0  0  0
 40 42  1  0  0  0  0
 40 83  1  0  0  0  0
 41 42  2  0  0  0  0
 41 84  1  0  0  0  0
 42 85  1  0  0  0  0
 43 44  2  0  0  0  0
 44 86  1  0  0  0  0
M  END
> <PUBCHEM_COMPOUND_CID>
138678712

> <PUBCHEM_CONFORMER_RMSD>
1.2

> <PUBCHEM_CONFORMER_DIVERSEORDER>
1
95
60
70
93
87
108
90
20
94
74
107
98
26
67
35
22
96
58
91
21
42
84
11
9
56
29
4
45
105
88
15
46
89
18
81
43
24
16
55
112
102
69
82
66
44
12
86
52
8
13
34
76
72
65
79
47
64
59
109
85
51
38
77
68
73
50
30
80
14
31
83
7
110
5
39
111
106
33
37
17
41
19
62
32
103
92
57
3
101
28
78
54
23
40
61
100
49
71
10
27
6
97
99
75
53
63
2
48
104
36
25

> <PUBCHEM_MMFF94_PARTIAL_CHARGES>
48
1 -0.18
10 -0.62
11 -0.62
12 0.27
15 0.27
16 0.41
17 0.14
18 0.28
19 0.28
2 1.2
20 -0.17
21 -0.29
22 0.03
23 -0.14
24 -0.15
25 0.08
26 -0.15
27 0.1
28 0.14
29 0.28
3 -0.56
30 0.11
31 0.72
32 -0.01
35 0.1
38 -0.15
39 0.41
4 -0.36
40 -0.15
41 -0.15
42 -0.15
43 0.18
44 0.16
5 -0.65
6 -0.65
60 0.15
61 0.15
62 0.15
66 0.4
7 -0.81
8 -0.6
81 0.15
82 0.4
83 0.15
84 0.15
85 0.15
86 0.15
9 -0.6

> <PUBCHEM_EFFECTIVE_ROTOR_COUNT>
12

> <PUBCHEM_PHARMACOPHORE_FEATURES>
15
1 3 acceptor
1 4 acceptor
1 5 acceptor
1 6 acceptor
1 7 cation
1 8 donor
1 9 donor
3 29 33 34 hydrophobe
3 30 36 37 hydrophobe
4 8 10 11 31 cation
6 10 11 31 39 43 44 rings
6 22 23 24 25 26 27 rings
6 3 12 13 14 18 19 rings
6 32 35 38 40 41 42 rings
6 7 15 16 17 20 21 rings

> <PUBCHEM_HEAVY_ATOM_COUNT>
44

> <PUBCHEM_ATOM_DEF_STEREO_COUNT>
0

> <PUBCHEM_ATOM_UDEF_STEREO_COUNT>
0

> <PUBCHEM_BOND_DEF_STEREO_COUNT>
0

> <PUBCHEM_BOND_UDEF_STEREO_COUNT>
0

> <PUBCHEM_ISOTOPIC_ATOM_COUNT>
0

> <PUBCHEM_COMPONENT_COUNT>
1

> <PUBCHEM_CACTVS_TAUTO_COUNT>
-1

> <PUBCHEM_CONFORMER_ID>
084411B800000001

> <PUBCHEM_MMFF94_ENERGY>
135.3369

> <PUBCHEM_FEATURE_SELFOVERLAP>
76.14

> <PUBCHEM_SHAPE_FINGERPRINT>
11017883 126 18270402840654884877
11409948 41 18270668892573055015
11966995 16 18409448094647265279
13383668 1 18334285483761359834
13560911 43 18410289177876581606
1361 2 18201725110283433774
14918310 93 18412539946454841997
15328684 2 16988300711259618179
15484559 13 18123763208083729268
15538507 32 18410011048331897811
16664035 7 18263916662453412032
18365409 1 17269755002642690397
19301679 30 18342177752477084705
19841028 212 18413108377362020163
21133410 58 18337388370422070087
21703447 108 18336823109622892560
22311459 1 18264768947095366785
24771750 20 17466242133321842581
4066623 53 18334010571304656357
45266715 3 18259983803228236994
50009960 94 18188479160966390898

> <PUBCHEM_SHAPE_MULTIPOLES>
862.84
22.9
7.42
2.12
54.06
7.77
0.61
-24.01
-1.07
-7.09
1.71
-1.65
-1.96
-0.48

> <PUBCHEM_SHAPE_SELFOVERLAP>
1814.537

> <PUBCHEM_SHAPE_VOLUME>
489.3

> <PUBCHEM_COORDINATE_TYPE>
2
5
10

$$$$
5330535
  -OEChem-11282412143D

 33 36  0     0  0  0  0  0  0999 V2000
    0.4709    3.1260    0.0274 O   0  0  0  0  0  0  0  0  0  0  0  0
   -6.3618   -0.9570    0.4004 O   0  0  0  0  0  0  0  0  0  0  0  0
   -1.0496   -0.0389   -0.5973 N   0  0  0  0  0  0  0  0  0  0  0  0
    1.6660   -0.1535    0.5534 N   0  0  0  0  0  0  0  0  0  0  0  0
   -0.8691    1.1839   -0.0087 C   0  0  0  0  0  0  0  0  0  0  0  0
    1.6205    1.0656    0.0020 C   0  0  0  0  0  0  0  0  0  0  0  0
   -3.0227    0.5520    0.2599 C   0  0  0  0  0  0  0  0  0  0  0  0
   -2.3552   -0.4493   -0.4488 C   0  0  0  0  0  0  0  0  0  0  0  0
    2.9393   -0.6512    0.3907 C   0  0  0  0  0  0  0  0  0  0  0  0
    3.6769    0.3209   -0.2883 C   0  0  0  0  0  0  0  0  0  0  0  0
    0.3786    1.8798    0.0078 C   0  0  0  0  0  0  0  0  0  0  0  0
   -2.0725    1.5761    0.5306 C   0  0  0  0  0  0  0  0  0  0  0  0
    2.8025    1.4179   -0.5267 C   0  0  0  0  0  0  0  0  0  0  0  0
   -4.3906    0.3802    0.5509 C   0  0  0  0  0  0  0  0  0  0  0  0
   -2.9901   -1.6182   -0.8833 C   0  0  0  0  0  0  0  0  0  0  0  0
    3.4887   -1.8751    0.7887 C   0  0  0  0  0  0  0  0  0  0  0  0
    5.0294    0.0609   -0.5863 C   0  0  0  0  0  0  0  0  0  0  0  0
   -5.0387   -0.7840    0.1228 C   0  0  0  0  0  0  0  0  0  0  0  0
   -4.3473   -1.7664   -0.5834 C   0  0  0  0  0  0  0  0  0  0  0  0
    4.8322   -2.1106    0.4827 C   0  0  0  0  0  0  0  0  0  0  0  0
    5.5924   -1.1591   -0.1944 C   0  0  0  0  0  0  0  0  0  0  0  0
   -2.2554    2.4993    1.0645 H   0  0  0  0  0  0  0  0  0  0  0  0
   -0.3443   -0.5631   -1.0966 H   0  0  0  0  0  0  0  0  0  0  0  0
    0.9212   -0.6371    1.0373 H   0  0  0  0  0  0  0  0  0  0  0  0
    3.0478    2.3419   -1.0323 H   0  0  0  0  0  0  0  0  0  0  0  0
   -4.9298    1.1464    1.1014 H   0  0  0  0  0  0  0  0  0  0  0  0
   -2.4526   -2.3837   -1.4328 H   0  0  0  0  0  0  0  0  0  0  0  0
    2.8976   -2.6166    1.3155 H   0  0  0  0  0  0  0  0  0  0  0  0
    5.6335    0.7938   -1.1134 H   0  0  0  0  0  0  0  0  0  0  0  0
   -4.8649   -2.6657   -0.9095 H   0  0  0  0  0  0  0  0  0  0  0  0
    5.2898   -3.0515    0.7777 H   0  0  0  0  0  0  0  0  0  0  0  0
    6.6351   -1.3651   -0.4214 H   0  0  0  0  0  0  0  0  0  0  0  0
   -6.6842   -0.1837    0.8944 H   0  0  0  0  0  0  0  0  0  0  0  0
  1 11  2  0  0  0  0
  2 18  1  0  0  0  0
  2 33  1  0  0  0  0
  3  5  1  0  0  0  0
  3  8  1  0  0  0  0
  3 23  1  0  0  0  0
  4  6  1  0  0  0  0
  4  9  1  0  0  0  0
  4 24  1  0  0  0  0
  5 11  1  0  0  0  0
  5 12  2  0  0  0  0
  6 11  1  0  0  0  0
  6 13  2  0  0  0  0
  7  8  2  0  0  0  0
  7 12  1  0  0  0  0
  7 14  1  0  0  0  0
  8 15  1  0  0  0  0
  9 10  1  0  0  0  0
  9 16  2  0  0  0  0
 10 13  1  0  0  0  0
 10 17  2  0  0  0  0
 12 22  1  0  0  0  0
 13 25  1  0  0  0  0
 14 18  2  0  0  0  0
 14 26  1  0  0  0  0
 15 19  2  0  0  0  0
 15 27  1  0  0  0  0
 16 20  1  0  0  0  0
 16 28  1  0  0  0  0
 17 21  1  0  0  0  0
 17 29  1  0  0  0  0
 18 19  1  0  0  0  0
 19 30  1  0  0  0  0
 20 21  2  0  0  0  0
 20 31  1  0  0  0  0
 21 32  1  0  0  0  0
M  END
> <PUBCHEM_COMPOUND_CID>
5330535

> <PUBCHEM_CONFORMER_RMSD>
0.6

> <PUBCHEM_CONFORMER_DIVERSEORDER>
1
8
20
24
19
7
2
17
23
14
12
6
18
3
4
5
13
21
9
22
16
10
15
11

> <PUBCHEM_MMFF94_PARTIAL_CHARGES>
31
1 -0.57
11 0.74
12 -0.15
13 -0.15
14 -0.15
15 -0.15
16 -0.15
17 -0.15
18 0.08
19 -0.15
2 -0.53
20 -0.15
21 -0.15
22 0.15
23 0.27
24 0.27
25 0.15
26 0.15
27 0.15
28 0.15
29 0.15
3 0.03
30 0.15
31 0.15
32 0.15
33 0.45
4 0.03
5 -0.24
6 -0.24
8 -0.15
9 -0.15

> <PUBCHEM_EFFECTIVE_ROTOR_COUNT>
2

> <PUBCHEM_PHARMACOPHORE_FEATURES>
10
1 1 acceptor
1 2 donor
1 3 cation
1 3 donor
1 4 cation
1 4 donor
5 3 5 7 8 12 rings
5 4 6 9 10 13 rings
6 7 8 14 15 18 19 rings
6 9 10 16 17 20 21 rings

> <PUBCHEM_HEAVY_ATOM_COUNT>
21

> <PUBCHEM_ATOM_DEF_STEREO_COUNT>
0

> <PUBCHEM_ATOM_UDEF_STEREO_COUNT>
0

> <PUBCHEM_BOND_DEF_STEREO_COUNT>
0

> <PUBCHEM_BOND_UDEF_STEREO_COUNT>
0

> <PUBCHEM_ISOTOPIC_ATOM_COUNT>
0

> <PUBCHEM_COMPONENT_COUNT>
1

> <PUBCHEM_CACTVS_TAUTO_COUNT>
61

> <PUBCHEM_CONFORMER_ID>
0051566700000001

> <PUBCHEM_MMFF94_ENERGY>
46.9352

> <PUBCHEM_FEATURE_SELFOVERLAP>
50.937

> <PUBCHEM_SHAPE_FINGERPRINT>
10616163 171 18342176644106548790
11045515 52 18040996211418504708
11046707 91 18341610387001636760
12107183 9 17835243341902059240
12236239 1 18411142428384115193
12553582 1 18339067246523636430
12592606 108 18412825811816901055
12596602 18 17489587882982353522
12633257 1 15697708294206268466
12788726 201 18059310819567574353
12839892 36 17346318241319037759
13103583 49 18060430092355385169
13167823 11 18410293609691668998
13533116 47 18339363071096937353
13551218 46 18272090457253282303
13685833 64 18334298682106176691
13862211 1 18273213127892941767
13955234 65 18124597745434753801
1420 369 18411417293722629442
14576447 43 18333733490612323794
14767858 380 18187662318832646316
15042514 8 18269276764042875057
15183329 4 18261945268465194101
15188451 53 16343407514884118255
15196674 1 18410292493147923564
15342816 4 18411145723209496692
15352361 1 18410572881498044754
15537594 2 18410859884113743182
17349148 13 17775566472822297645
17492 89 18123748931601718383
17804303 29 18060136544157124273
17857418 61 18412541015827877895
1813 80 18187377497190240764
19784866 240 18408891732666973981
200 152 18259985955254375144
20028762 73 18059570334387589543
20157964 124 10015595990870191761
20261772 1 18060413621272089846
20281475 54 18410853252763255276
20291156 8 18411133628212306036
20403669 9 18341898484617633526
20645477 70 18040713696974662272
20832881 197 18408039615703733281
21250096 35 18412260644625990320
21267235 1 18411426102484217214
221490 88 18190466158343577418
22646028 28 18411699889369104822
22950370 63 18410295808720179810
235170 7 15936404516223128030
23522609 53 18122659164548264433
23559900 14 18339635767466573649
239999 70 18202006555955035324
2838139 119 8214141832964398402
2871803 45 17967530164543861234
3004659 81 18186237312512269190
314194 84 18409732897463909243
335352 9 18412543198568108893
3411729 13 17273687870474436600
3421961 26 18340201994174197120
351380 3 18411136930836675194
4214541 1 18411419466786358989
4325135 7 18409451414809861284
46194498 28 16950847010903897516
463206 1 18336264638661231010
465052 167 18341057410247198031
5104073 3 17773323529368379067
559249 180 18411698743277462041
7970288 3 18337105679357840690
8863177 126 17970640794930412339
9981440 41 17186432985251597793

> <PUBCHEM_SHAPE_MULTIPOLES>
410.47
13.09
2.36
0.82
2.27
0.63
0.02
-8.28
-0.34
-0.62
-0.06
0
-0.14
-1.11

> <PUBCHEM_SHAPE_SELFOVERLAP>
938.841

> <PUBCHEM_SHAPE_VOLUME>
214.8

> <PUBCHEM_COORDINATE_TYPE>
2
5
10

$$$$
969516
  -OEChem-11282412143D

 47 48  0     0  0  0  0  0  0999 V2000
    7.4029   -1.3263    0.7759 O   0  0  0  0  0  0  0  0  0  0  0  0
   -7.3871   -1.1972   -1.0249 O   0  0  0  0  0  0  0  0  0  0  0  0
    6.3135   -3.3404   -0.7995 O   0  0  0  0  0  0  0  0  0  0  0  0
   -7.4431   -1.9508    1.6498 O   0  0  0  0  0  0  0  0  0  0  0  0
    2.0774    3.9183    0.0082 O   0  0  0  0  0  0  0  0  0  0  0  0
   -0.7337    2.0147   -1.5497 O   0  0  0  0  0  0  0  0  0  0  0  0
    4.2152    0.1624   -0.1618 C   0  0  0  0  0  0  0  0  0  0  0  0
   -4.1499    0.0187    0.1151 C   0  0  0  0  0  0  0  0  0  0  0  0
    0.0325    2.7881    0.6005 C   0  0  0  0  0  0  0  0  0  0  0  0
    5.4636    0.0090    0.4190 C   0  0  0  0  0  0  0  0  0  0  0  0
   -5.2198   -0.2584   -0.7203 C   0  0  0  0  0  0  0  0  0  0  0  0
    6.1754   -1.1716    0.2058 C   0  0  0  0  0  0  0  0  0  0  0  0
   -6.3336   -0.9225   -0.2061 C   0  0  0  0  0  0  0  0  0  0  0  0
    3.6591   -0.8321   -0.9499 C   0  0  0  0  0  0  0  0  0  0  0  0
   -4.1632   -0.3500    1.4506 C   0  0  0  0  0  0  0  0  0  0  0  0
    3.4633    1.4098    0.0623 C   0  0  0  0  0  0  0  0  0  0  0  0
   -2.9736    0.7211   -0.4274 C   0  0  0  0  0  0  0  0  0  0  0  0
    5.6288   -2.1824   -0.5851 C   0  0  0  0  0  0  0  0  0  0  0  0
   -6.3619   -1.3004    1.1364 C   0  0  0  0  0  0  0  0  0  0  0  0
    1.4750    2.8559    0.1393 C   0  0  0  0  0  0  0  0  0  0  0  0
   -0.9161    2.0663   -0.3361 C   0  0  0  0  0  0  0  0  0  0  0  0
    4.3707   -2.0125   -1.1631 C   0  0  0  0  0  0  0  0  0  0  0  0
   -5.2767   -1.0140    1.9646 C   0  0  0  0  0  0  0  0  0  0  0  0
    2.1398    1.5414   -0.1041 C   0  0  0  0  0  0  0  0  0  0  0  0
   -2.0693    1.3763    0.3142 C   0  0  0  0  0  0  0  0  0  0  0  0
    7.8896   -0.2460    1.5698 C   0  0  0  0  0  0  0  0  0  0  0  0
   -7.2788   -0.7771   -2.3836 C   0  0  0  0  0  0  0  0  0  0  0  0
   -0.3396    3.8125    0.7159 H   0  0  0  0  0  0  0  0  0  0  0  0
    0.0292    2.3169    1.5899 H   0  0  0  0  0  0  0  0  0  0  0  0
    5.8387    0.8262    1.0258 H   0  0  0  0  0  0  0  0  0  0  0  0
   -5.1448    0.0602   -1.7545 H   0  0  0  0  0  0  0  0  0  0  0  0
    2.6936   -0.7339   -1.4362 H   0  0  0  0  0  0  0  0  0  0  0  0
   -3.3333   -0.1676    2.1258 H   0  0  0  0  0  0  0  0  0  0  0  0
    4.0582    2.2679    0.3672 H   0  0  0  0  0  0  0  0  0  0  0  0
   -2.8704    0.6886   -1.5096 H   0  0  0  0  0  0  0  0  0  0  0  0
    3.9419   -2.7946   -1.7839 H   0  0  0  0  0  0  0  0  0  0  0  0
   -5.2841   -1.3074    3.0111 H   0  0  0  0  0  0  0  0  0  0  0  0
    1.4908    0.7093   -0.3479 H   0  0  0  0  0  0  0  0  0  0  0  0
   -2.1353    1.4686    1.3916 H   0  0  0  0  0  0  0  0  0  0  0  0
    7.1616   -3.2862   -0.3257 H   0  0  0  0  0  0  0  0  0  0  0  0
   -7.2855   -2.1323    2.5922 H   0  0  0  0  0  0  0  0  0  0  0  0
    7.2578   -0.0732    2.4478 H   0  0  0  0  0  0  0  0  0  0  0  0
    8.0337    0.6611    0.9731 H   0  0  0  0  0  0  0  0  0  0  0  0
    8.8763   -0.5400    1.9427 H   0  0  0  0  0  0  0  0  0  0  0  0
   -6.4576   -1.2860   -2.8996 H   0  0  0  0  0  0  0  0  0  0  0  0
   -7.2124    0.3132   -2.4653 H   0  0  0  0  0  0  0  0  0  0  0  0
   -8.2037   -1.0768   -2.8876 H   0  0  0  0  0  0  0  0  0  0  0  0
  1 12  1  0  0  0  0
  1 26  1  0  0  0  0
  2 13  1  0  0  0  0
  2 27  1  0  0  0  0
  3 18  1  0  0  0  0
  3 40  1  0  0  0  0
  4 19  1  0  0  0  0
  4 41  1  0  0  0  0
  5 20  2  0  0  0  0
  6 21  2  0  0  0  0
  7 10  2  0  0  0  0
  7 14  1  0  0  0  0
  7 16  1  0  0  0  0
  8 11  2  0  0  0  0
  8 15  1  0  0  0  0
  8 17  1  0  0  0  0
  9 20  1  0  0  0  0
  9 21  1  0  0  0  0
  9 28  1  0  0  0  0
  9 29  1  0  0  0  0
 10 12  1  0  0  0  0
 10 30  1  0  0  0  0
 11 13  1  0  0  0  0
 11 31  1  0  0  0  0
 12 18  2  0  0  0  0
 13 19  2  0  0  0  0
 14 22  2  0  0  0  0
 14 32  1  0  0  0  0
 15 23  2  0  0  0  0
 15 33  1  0  0  0  0
 16 24  2  0  0  0  0
 16 34  1  0  0  0  0
 17 25  2  0  0  0  0
 17 35  1  0  0  0  0
 18 22  1  0  0  0  0
 19 23  1  0  0  0  0
 20 24  1  0  0  0  0
 21 25  1  0  0  0  0
 22 36  1  0  0  0  0
 23 37  1  0  0  0  0
 24 38  1  0  0  0  0
 25 39  1  0  0  0  0
 26 42  1  0  0  0  0
 26 43  1  0  0  0  0
 26 44  1  0  0  0  0
 27 45  1  0  0  0  0
 27 46  1  0  0  0  0
 27 47  1  0  0  0  0
M  END
> <PUBCHEM_COMPOUND_CID>
969516

> <PUBCHEM_CONFORMER_RMSD>
1

> <PUBCHEM_CONFORMER_DIVERSEORDER>
82
80
54
21
40
74
55
61
46
34
47
4
43
38
81
26
17
78
6
35
23
73
57
63
2
39
32
14
1
30
56
36
72
41
70
60
3
69
27
58
33
25
49
71
42
65
28
76
5
48
52
77
37
79
59
9
29
8
13
50
31
20
62
7
44
16
66
75
51
68
67
22
64
45
24
12
19
11
18
15
10
53

> <PUBCHEM_MMFF94_PARTIAL_CHARGES>
39
1 -0.36
10 -0.15
11 -0.15
12 0.08
13 0.08
14 -0.15
15 -0.15
16 -0.18
17 -0.18
18 0.08
19 0.08
2 -0.36
20 0.49
21 0.49
22 -0.15
23 -0.15
24 -0.14
25 -0.14
26 0.28
27 0.28
3 -0.53
30 0.15
31 0.15
32 0.15
33 0.15
34 0.15
35 0.15
36 0.15
37 0.15
38 0.15
39 0.15
4 -0.53
40 0.45
41 0.45
5 -0.57
6 -0.57
7 0.03
8 0.03
9 0.12

> <PUBCHEM_EFFECTIVE_ROTOR_COUNT>
8

> <PUBCHEM_PHARMACOPHORE_FEATURES>
9
1 1 acceptor
1 2 acceptor
1 3 donor
1 4 donor
1 5 acceptor
1 6 acceptor
1 9 anion
6 7 10 12 14 18 22 rings
6 8 11 13 15 19 23 rings

> <PUBCHEM_HEAVY_ATOM_COUNT>
27

> <PUBCHEM_ATOM_DEF_STEREO_COUNT>
0

> <PUBCHEM_ATOM_UDEF_STEREO_COUNT>
0

> <PUBCHEM_BOND_DEF_STEREO_COUNT>
2

> <PUBCHEM_BOND_UDEF_STEREO_COUNT>
0

> <PUBCHEM_ISOTOPIC_ATOM_COUNT>
0

> <PUBCHEM_COMPONENT_COUNT>
1

> <PUBCHEM_CACTVS_TAUTO_COUNT>
49

> <PUBCHEM_CONFORMER_ID>
000ECB2C00000052

> <PUBCHEM_MMFF94_ENERGY>
92.651

> <PUBCHEM_FEATURE_SELFOVERLAP>
45.672

> <PUBCHEM_SHAPE_FINGERPRINT>
10 15 12751240315890217573
10319688 140 18337398252872831732
10669705 162 18337104575972446653
10917259 69 18192703459598944165
11211813 128 18272932692783743174
11410812 94 16370996361790263860
117089 54 18267879293612551318
11828532 37 17896331370365246675
12342043 65 18188209905213906085
12758862 65 18410567410511369408
12760667 363 18411139121760541745
13533116 47 18272092759487660785
1361 87 17822307806824084883
13673619 4 18187085057046420093
13782708 43 18187646942401274497
13911852 28 18342177760919306525
13955234 65 18127412482311963032
14251764 75 8934705700369515222
14931854 50 17458064828953579058
15188451 53 18040713637372491534
15510800 12 18334017193917594602
15519825 34 15769481128208245039
16096371 109 17842545529393793568
1768 124 17918273151673982878
190975 80 18273208699771038632
1979834 28 17274556351083136116
20105231 36 17632018551801690966
20165401 70 18269560610432539175
2026 5 18187081767692646843
21033650 10 16081361917848681093
21307412 95 17967532394149105875
21315764 119 16081364133534249763
21585481 104 14779540124190440126
21585482 111 9150633321735644751
21585482 310 18261684739337370307
21682296 61 18408609175854266457
22149856 69 18130234757594157200
229767 8 17769106648757633326
2303208 19 17749956686811695209
23559900 14 17895477059232625973
270888 7 9367336016755256852
3014063 24 18201716258419056095
32027 91 18336829796691442577
3383291 50 18335703857830032987
34797466 226 16806453698591057205
4046055 4 18260545598226657845
439807 62 17967816037266467641
4461854 278 17917996092435725982
46194498 28 17749669692248635052
474113 269 18060412513729437109
5104073 3 17843397381307680056
513202 73 18411700985483149125
5718773 13 18410291402073184614
59682541 35 18342166779510532640
6126387 218 18059849546448719409
96874 4 17846488266996003727
9689198 14 12751239220357137022
9962374 69 18270389628765581455

> <PUBCHEM_SHAPE_MULTIPOLES>
520.43
25.03
3.33
1.58
5.48
1.87
-0.01
-22.64
-2.84
-3.92
0.39
2.68
-0.7
1.55

> <PUBCHEM_SHAPE_SELFOVERLAP>
1103.249

> <PUBCHEM_SHAPE_VOLUME>
290

> <PUBCHEM_COORDINATE_TYPE>
2
5
10

$$$$
5281811
  -OEChem-11282412143D

 34 36  0     0  0  0  0  0  0999 V2000
   -0.5304    2.2877    0.1253 O   0  0  0  0  0  0  0  0  0  0  0  0
   -4.6639   -1.3525   -0.2802 O   0  0  0  0  0  0  0  0  0  0  0  0
   -2.0966   -2.2698   -0.3360 O   0  0  0  0  0  0  0  0  0  0  0  0
    0.4165   -1.6605   -0.2788 O   0  0  0  0  0  0  0  0  0  0  0  0
   -5.1765    1.3523   -0.0238 O   0  0  0  0  0  0  0  0  0  0  0  0
    6.6718   -0.6724    0.0898 O   0  0  0  0  0  0  0  0  0  0  0  0
   -1.2591   -0.0158   -0.1070 C   0  0  0  0  0  0  0  0  0  0  0  0
   -1.5232    1.3473    0.0222 C   0  0  0  0  0  0  0  0  0  0  0  0
    1.1871    0.5754   -0.0023 C   0  0  0  0  0  0  0  0  0  0  0  0
    0.1415   -0.4760   -0.1376 C   0  0  0  0  0  0  0  0  0  0  0  0
   -2.3117   -0.9292   -0.2096 C   0  0  0  0  0  0  0  0  0  0  0  0
    2.6220    0.2483    0.0220 C   0  0  0  0  0  0  0  0  0  0  0  0
   -3.6289   -0.4691   -0.1814 C   0  0  0  0  0  0  0  0  0  0  0  0
   -2.8409    1.8050    0.0497 C   0  0  0  0  0  0  0  0  0  0  0  0
    0.7701    1.8450    0.1167 C   0  0  0  0  0  0  0  0  0  0  0  0
   -3.8932    0.8950   -0.0521 C   0  0  0  0  0  0  0  0  0  0  0  0
    3.2556   -0.0362    1.2334 C   0  0  0  0  0  0  0  0  0  0  0  0
    3.3545    0.2222   -1.1668 C   0  0  0  0  0  0  0  0  0  0  0  0
    4.6156   -0.3453    1.2560 C   0  0  0  0  0  0  0  0  0  0  0  0
    4.7144   -0.0871   -1.1441 C   0  0  0  0  0  0  0  0  0  0  0  0
    5.3450   -0.3709    0.0673 C   0  0  0  0  0  0  0  0  0  0  0  0
   -5.1699   -1.8937    0.9374 C   0  0  0  0  0  0  0  0  0  0  0  0
   -3.0487    2.8673    0.1501 H   0  0  0  0  0  0  0  0  0  0  0  0
    1.4389    2.6901    0.2253 H   0  0  0  0  0  0  0  0  0  0  0  0
    2.7008   -0.0213    2.1685 H   0  0  0  0  0  0  0  0  0  0  0  0
    2.8771    0.4404   -2.1192 H   0  0  0  0  0  0  0  0  0  0  0  0
    5.1014   -0.5656    2.2027 H   0  0  0  0  0  0  0  0  0  0  0  0
    5.2715   -0.1037   -2.0770 H   0  0  0  0  0  0  0  0  0  0  0  0
   -1.1493   -2.4715   -0.3067 H   0  0  0  0  0  0  0  0  0  0  0  0
   -5.7768    0.5976   -0.1506 H   0  0  0  0  0  0  0  0  0  0  0  0
   -6.0099   -2.5511    0.6968 H   0  0  0  0  0  0  0  0  0  0  0  0
   -5.5278   -1.0979    1.5983 H   0  0  0  0  0  0  0  0  0  0  0  0
   -4.3998   -2.4830    1.4450 H   0  0  0  0  0  0  0  0  0  0  0  0
    7.0169   -0.6439   -0.8192 H   0  0  0  0  0  0  0  0  0  0  0  0
  1  8  1  0  0  0  0
  1 15  1  0  0  0  0
  2 13  1  0  0  0  0
  2 22  1  0  0  0  0
  3 11  1  0  0  0  0
  3 29  1  0  0  0  0
  4 10  2  0  0  0  0
  5 16  1  0  0  0  0
  5 30  1  0  0  0  0
  6 21  1  0  0  0  0
  6 34  1  0  0  0  0
  7  8  2  0  0  0  0
  7 10  1  0  0  0  0
  7 11  1  0  0  0  0
  8 14  1  0  0  0  0
  9 10  1  0  0  0  0
  9 12  1  0  0  0  0
  9 15  2  0  0  0  0
 11 13  2  0  0  0  0
 12 17  2  0  0  0  0
 12 18  1  0  0  0  0
 13 16  1  0  0  0  0
 14 16  2  0  0  0  0
 14 23  1  0  0  0  0
 15 24  1  0  0  0  0
 17 19  1  0  0  0  0
 17 25  1  0  0  0  0
 18 20  2  0  0  0  0
 18 26  1  0  0  0  0
 19 21  2  0  0  0  0
 19 27  1  0  0  0  0
 20 21  1  0  0  0  0
 20 28  1  0  0  0  0
 22 31  1  0  0  0  0
 22 32  1  0  0  0  0
 22 33  1  0  0  0  0
M  END
> <PUBCHEM_COMPOUND_CID>
5281811

> <PUBCHEM_CONFORMER_RMSD>
0.6

> <PUBCHEM_CONFORMER_DIVERSEORDER>
1
2
3

> <PUBCHEM_MMFF94_PARTIAL_CHARGES>
31
1 -0.16
10 0.47
11 0.08
12 0.03
13 0.08
14 -0.15
15 -0.07
16 0.08
17 -0.15
18 -0.15
19 -0.15
2 -0.36
20 -0.15
21 0.08
22 0.28
23 0.15
24 0.15
25 0.15
26 0.15
27 0.15
28 0.15
29 0.45
3 -0.53
30 0.45
34 0.45
4 -0.57
5 -0.53
6 -0.53
7 0.09
8 0.08
9 -0.01

> <PUBCHEM_EFFECTIVE_ROTOR_COUNT>
2

> <PUBCHEM_PHARMACOPHORE_FEATURES>
9
1 1 acceptor
1 2 acceptor
1 3 donor
1 4 acceptor
1 5 donor
1 6 donor
6 1 7 8 9 10 15 rings
6 12 17 18 19 20 21 rings
6 7 8 11 13 14 16 rings

> <PUBCHEM_HEAVY_ATOM_COUNT>
22

> <PUBCHEM_ATOM_DEF_STEREO_COUNT>
0

> <PUBCHEM_ATOM_UDEF_STEREO_COUNT>
0

> <PUBCHEM_BOND_DEF_STEREO_COUNT>
0

> <PUBCHEM_BOND_UDEF_STEREO_COUNT>
0

> <PUBCHEM_ISOTOPIC_ATOM_COUNT>
0

> <PUBCHEM_COMPONENT_COUNT>
1

> <PUBCHEM_CACTVS_TAUTO_COUNT>
24

> <PUBCHEM_CONFORMER_ID>
0050981300000001

> <PUBCHEM_MMFF94_ENERGY>
79.0316

> <PUBCHEM_FEATURE_SELFOVERLAP>
45.7

> <PUBCHEM_SHAPE_FINGERPRINT>
10 15 17774705534264989978
10062212 137 18335135410296554559
11045977 3 17988633108343264784
11046707 91 18408603669115687057
11315181 36 18259704514468604316
11646440 116 17988651796162564849
11963148 33 18336823194990475515
12107183 9 17321532792280663880
12236239 1 17967251992776783284
12403259 415 17918269870492742864
12403814 3 17603866659313431709
13140716 1 18268992153913670161
13288520 33 18411419513919891733
13675066 3 17917989507501091864
13862211 1 18340484560267747247
14386348 63 17775568637359051710
15042514 8 18268429229925932863
15196674 1 18411418453163573105
15788980 27 17822293465938819188
17138139 8 17315066894762503619
17349148 13 18259708903819581910
17804303 29 18341893012987540721
17844677 252 18343304790307583160
1813 80 17531250526453721854
18681886 176 18334858338394590712
19141452 34 17561082561416146311
200 152 16588023485676333828
20028762 73 17987234624301198479
20645477 70 14779537938869374544
21033648 29 16988266608448511040
21267235 1 18409735092572031475
22182313 1 18058745610703727743
2297311 6 18343309154257820444
23175994 123 17132113541594507009
23402539 116 18342451538944974589
23522609 53 18047789076318322773
23557571 272 18202287991860191788
23559900 14 18272371980038836668
23569914 152 12762427799200334035
26918003 58 16630524038227324242
3004659 81 18259988176200782316
335352 9 18411416207549740493
34797466 226 17917162701613966212
4214541 1 18411136935136728876
465052 167 18336273456155061123
5104073 3 18340209686713793497
5385378 56 18126857001933487683
542803 24 17748828510144657716
559249 180 18334290942184822891
59755656 215 18342460288395263030
67856867 119 18262240044861240132
8863177 126 17753341056316267131

> <PUBCHEM_SHAPE_MULTIPOLES>
417.53
12.67
1.93
0.93
6.98
0.13
0.07
-3.8
0.87
-2.59
0.09
0.89
-0.12
0.06

> <PUBCHEM_SHAPE_SELFOVERLAP>
929.782

> <PUBCHEM_SHAPE_VOLUME>
222.1

> <PUBCHEM_COORDINATE_TYPE>
2
5
10

$$$$
10138259
  -OEChem-11282412143D

 59 62  0     1  0  0  0  0  0999 V2000
    7.8356    0.0948   -2.6796 F   0  0  0  0  0  0  0  0  0  0  0  0
   -8.0509    1.1098   -0.6922 O   0  0  0  0  0  0  0  0  0  0  0  0
   -3.4299   -3.2909   -0.4967 O   0  0  0  0  0  0  0  0  0  0  0  0
   -3.1337    0.9979    0.6479 O   0  0  0  0  0  0  0  0  0  0  0  0
    2.5376   -0.1200    2.1597 O   0  0  0  0  0  0  0  0  0  0  0  0
   -5.5465   -0.2368   -0.5650 N   0  0  0  0  0  0  0  0  0  0  0  0
   -2.3007   -1.1188    1.0234 N   0  0  0  0  0  0  0  0  0  0  0  0
    0.9686    2.0055    0.2485 N   0  0  0  0  0  0  0  0  0  0  0  0
    4.8470   -0.5217    1.8675 N   0  0  0  0  0  0  0  0  0  0  0  0
   -4.5933   -1.2462   -1.0219 C   0  0  0  0  0  0  0  0  0  0  0  0
   -5.8532    0.7158   -1.6410 C   0  0  0  0  0  0  0  0  0  0  0  0
   -6.7834   -0.8675   -0.0833 C   0  0  0  0  0  0  0  0  0  0  0  0
   -4.2721   -2.2808    0.0628 C   0  0  2  0  0  0  0  0  0  0  0  0
   -6.8580    1.7515   -1.1444 C   0  0  0  0  0  0  0  0  0  0  0  0
   -7.7670    0.2051    0.3757 C   0  0  0  0  0  0  0  0  0  0  0  0
   -3.5814   -1.7247    1.3097 C   0  0  0  0  0  0  0  0  0  0  0  0
   -0.8095    0.6852    0.4123 C   0  0  0  0  0  0  0  0  0  0  0  0
    0.2556   -0.0591   -0.1525 C   0  0  0  0  0  0  0  0  0  0  0  0
    1.3145    0.7852   -0.2326 C   0  0  0  0  0  0  0  0  0  0  0  0
   -0.3409    1.9584    0.6500 C   0  0  0  0  0  0  0  0  0  0  0  0
   -2.1436    0.2394    0.7011 C   0  0  0  0  0  0  0  0  0  0  0  0
    2.6599    0.6341   -0.7063 C   0  0  0  0  0  0  0  0  0  0  0  0
    3.6849    0.2176    0.0395 C   0  0  0  0  0  0  0  0  0  0  0  0
    5.0783    0.0341   -0.3520 C   0  0  0  0  0  0  0  0  0  0  0  0
    0.2087   -1.4768   -0.5689 C   0  0  0  0  0  0  0  0  0  0  0  0
   -1.0024    3.1477    1.2220 C   0  0  0  0  0  0  0  0  0  0  0  0
    5.7393   -0.4156    0.7948 C   0  0  0  0  0  0  0  0  0  0  0  0
    3.5530   -0.1494    1.4894 C   0  0  0  0  0  0  0  0  0  0  0  0
    5.7653    0.2140   -1.5375 C   0  0  0  0  0  0  0  0  0  0  0  0
    7.0908   -0.6998    0.8059 C   0  0  0  0  0  0  0  0  0  0  0  0
    7.1357   -0.0677   -1.5486 C   0  0  0  0  0  0  0  0  0  0  0  0
    7.7919   -0.5201   -0.3881 C   0  0  0  0  0  0  0  0  0  0  0  0
   -3.6674   -0.7774   -1.3761 H   0  0  0  0  0  0  0  0  0  0  0  0
   -4.9882   -1.7804   -1.8982 H   0  0  0  0  0  0  0  0  0  0  0  0
   -4.9414    1.2311   -1.9636 H   0  0  0  0  0  0  0  0  0  0  0  0
   -6.2721    0.1894   -2.5084 H   0  0  0  0  0  0  0  0  0  0  0  0
   -7.2418   -1.4732   -0.8756 H   0  0  0  0  0  0  0  0  0  0  0  0
   -6.6142   -1.5029    0.7897 H   0  0  0  0  0  0  0  0  0  0  0  0
   -5.1713   -2.8241    0.3654 H   0  0  0  0  0  0  0  0  0  0  0  0
   -7.1324    2.4263   -1.9615 H   0  0  0  0  0  0  0  0  0  0  0  0
   -6.4415    2.3631   -0.3347 H   0  0  0  0  0  0  0  0  0  0  0  0
   -7.3827    0.7654    1.2371 H   0  0  0  0  0  0  0  0  0  0  0  0
   -8.7116   -0.2588    0.6775 H   0  0  0  0  0  0  0  0  0  0  0  0
   -4.2195   -0.9952    1.8190 H   0  0  0  0  0  0  0  0  0  0  0  0
   -3.3771   -2.5388    2.0143 H   0  0  0  0  0  0  0  0  0  0  0  0
   -1.4864   -1.7077    1.1473 H   0  0  0  0  0  0  0  0  0  0  0  0
    1.5681    2.8188    0.3053 H   0  0  0  0  0  0  0  0  0  0  0  0
   -3.2668   -3.9572    0.1927 H   0  0  0  0  0  0  0  0  0  0  0  0
    2.8250    0.8844   -1.7515 H   0  0  0  0  0  0  0  0  0  0  0  0
    0.9911   -1.6945   -1.3049 H   0  0  0  0  0  0  0  0  0  0  0  0
    0.3776   -2.1413    0.2842 H   0  0  0  0  0  0  0  0  0  0  0  0
   -0.7417   -1.7305   -1.0483 H   0  0  0  0  0  0  0  0  0  0  0  0
   -1.5163    2.8944    2.1550 H   0  0  0  0  0  0  0  0  0  0  0  0
   -1.7404    3.5493    0.5203 H   0  0  0  0  0  0  0  0  0  0  0  0
   -0.2846    3.9438    1.4466 H   0  0  0  0  0  0  0  0  0  0  0  0
    5.1191   -0.8302    2.7934 H   0  0  0  0  0  0  0  0  0  0  0  0
    5.2709    0.5620   -2.4376 H   0  0  0  0  0  0  0  0  0  0  0  0
    7.5948   -1.0480    1.7001 H   0  0  0  0  0  0  0  0  0  0  0  0
    8.8572   -0.7316   -0.4248 H   0  0  0  0  0  0  0  0  0  0  0  0
  1 31  1  0  0  0  0
  2 14  1  0  0  0  0
  2 15  1  0  0  0  0
  3 13  1  0  0  0  0
  3 48  1  0  0  0  0
  4 21  2  0  0  0  0
  5 28  2  0  0  0  0
  6 10  1  0  0  0  0
  6 11  1  0  0  0  0
  6 12  1  0  0  0  0
  7 16  1  0  0  0  0
  7 21  1  0  0  0  0
  7 46  1  0  0  0  0
  8 19  1  0  0  0  0
  8 20  1  0  0  0  0
  8 47  1  0  0  0  0
  9 27  1  0  0  0  0
  9 28  1  0  0  0  0
  9 56  1  0  0  0  0
 10 13  1  0  0  0  0
 10 33  1  0  0  0  0
 10 34  1  0  0  0  0
 11 14  1  0  0  0  0
 11 35  1  0  0  0  0
 11 36  1  0  0  0  0
 12 15  1  0  0  0  0
 12 37  1  0  0  0  0
 12 38  1  0  0  0  0
 13 16  1  0  0  0  0
 13 39  1  0  0  0  0
 14 40  1  0  0  0  0
 14 41  1  0  0  0  0
 15 42  1  0  0  0  0
 15 43  1  0  0  0  0
 16 44  1  0  0  0  0
 16 45  1  0  0  0  0
 17 18  1  0  0  0  0
 17 20  2  0  0  0  0
 17 21  1  0  0  0  0
 18 19  2  0  0  0  0
 18 25  1  0  0  0  0
 19 22  1  0  0  0  0
 20 26  1  0  0  0  0
 22 23  2  0  0  0  0
 22 49  1  0  0  0  0
 23 24  1  0  0  0  0
 23 28  1  0  0  0  0
 24 27  2  0  0  0  0
 24 29  1  0  0  0  0
 25 50  1  0  0  0  0
 25 51  1  0  0  0  0
 25 52  1  0  0  0  0
 26 53  1  0  0  0  0
 26 54  1  0  0  0  0
 26 55  1  0  0  0  0
 27 30  1  0  0  0  0
 29 31  2  0  0  0  0
 29 57  1  0  0  0  0
 30 32  2  0  0  0  0
 30 58  1  0  0  0  0
 31 32  1  0  0  0  0
 32 59  1  0  0  0  0
M  END
> <PUBCHEM_COMPOUND_CID>
10138259

> <PUBCHEM_CONFORMER_RMSD>
1

> <PUBCHEM_CONFORMER_DIVERSEORDER>
4
55
81
88
94
3
33
60
77
70
86
29
20
75
83
67
65
57
24
95
22
93
7
62
85
58
37
89
21
36
15
34
79
96
90
73
87
40
91
78
66
69
68
84
56
31
1
16
35
64
38
2
47
92
44
61
28
72
49
76
71
19
54
74
30
97
39
80
42
52
14
53
11
8
50
17
10
41
46
27
51
43
13
63
45
23
26
6
82
12
9
59
32
25
5
18
48

> <PUBCHEM_MMFF94_PARTIAL_CHARGES>
40
1 -0.19
10 0.27
11 0.27
12 0.27
13 0.28
14 0.28
15 0.28
16 0.3
17 -0.09
18 -0.18
19 -0.2
2 -0.56
20 -0.33
21 0.72
22 -0.11
23 -0.01
24 0.03
25 0.18
26 0.18
27 0.12
28 0.62
29 -0.15
3 -0.68
30 -0.15
31 0.19
32 -0.15
4 -0.57
46 0.37
47 0.27
48 0.4
49 0.15
5 -0.57
56 0.37
57 0.15
58 0.15
59 0.15
6 -0.81
7 -0.73
8 0.03
9 -0.55

> <PUBCHEM_EFFECTIVE_ROTOR_COUNT>
8.4

> <PUBCHEM_PHARMACOPHORE_FEATURES>
14
1 2 acceptor
1 3 acceptor
1 3 donor
1 4 acceptor
1 5 acceptor
1 6 cation
1 7 donor
1 8 cation
1 8 donor
1 9 donor
5 8 17 18 19 20 rings
5 9 23 24 27 28 rings
6 2 6 11 12 14 15 rings
6 24 27 29 30 31 32 rings

> <PUBCHEM_HEAVY_ATOM_COUNT>
32

> <PUBCHEM_ATOM_DEF_STEREO_COUNT>
1

> <PUBCHEM_ATOM_UDEF_STEREO_COUNT>
0

> <PUBCHEM_BOND_DEF_STEREO_COUNT>
1

> <PUBCHEM_BOND_UDEF_STEREO_COUNT>
0

> <PUBCHEM_ISOTOPIC_ATOM_COUNT>
0

> <PUBCHEM_COMPONENT_COUNT>
1

> <PUBCHEM_CACTVS_TAUTO_COUNT>
6

> <PUBCHEM_CONFORMER_ID>
009AB29300000004

> <PUBCHEM_MMFF94_ENERGY>
76.3173

> <PUBCHEM_FEATURE_SELFOVERLAP>
71.139

> <PUBCHEM_SHAPE_FINGERPRINT>
10 15 9727630605162302884
10299344 5 17458060465155866863
10369192 42 13984660348184954491
10883706 142 12973602257604845672
11135926 11 18060139813228662695
11672396 167 18267869381730209878
11724838 91 12751235917822555528
11796584 16 18186802508285622586
12082328 90 16877947156931968763
12236239 1 18041002839332997112
12539747 91 17561074796590126608
12788726 201 18335412418597189249
13617811 41 18412832369978540460
13673619 4 17418380190622433000
13782708 43 17346606270616145694
14117953 113 18202281403512332797
14251764 18 17603301562008022935
14294032 229 18193843643865516249
14856354 85 17894910759289116615
14930077 153 16877942720262589885
15183329 4 17240753000090676455
15276724 80 16588014689224382471
15301273 46 17561365080238259752
15419008 47 17703502229669269497
15439362 3 17025453355238711964
16087824 20 18269274574606911161
16992727 255 17968656013138723221
21150785 3 17385724690254569916
21424621 283 12901534720247934588
23559900 14 18199179762614724129
23576562 1 18115869779863725077
249057 3 18410008854088172157
25019877 29 11818994063300505689
3004659 81 18333730251473850576
3009799 131 18342454842086119641
335352 9 18411416229098059575
4073 2 15430045378279408656
4098825 35 16587745356320586033
4149490 64 15213016038543920568
4339292 15 17846504682793174798
437815 12 17489586779043746800
504579 68 18187372021697593228
5265222 85 18040999595825904903
5758199 1 11891328734506197309
58902169 19 17603307064109127598
59755656 215 18272650121329680535
59755656 520 16805320007845252235
6081469 158 16415478242736793081
6328613 192 17167861967490470605
7226269 152 18409442575698594217
9689198 14 14634863124817638999

> <PUBCHEM_SHAPE_MULTIPOLES>
607.87
23.85
2.16
1.65
1.68
0.07
-0.2
-2.27
-9.21
-3.64
0.35
2.08
0.08
0.21

> <PUBCHEM_SHAPE_SELFOVERLAP>
1316.083

> <PUBCHEM_SHAPE_VOLUME>
336.3

> <PUBCHEM_COORDINATE_TYPE>
2
5
10

$$$$
5328112
  -OEChem-11282412143D

 45 47  0     0  0  0  0  0  0999 V2000
   -0.1230    2.2083   -2.7404 Cl  0  0  0  0  0  0  0  0  0  0  0  0
   -0.1239    2.2075    2.7407 Cl  0  0  0  0  0  0  0  0  0  0  0  0
   -1.3168   -2.7296    0.0003 O   0  0  0  0  0  0  0  0  0  0  0  0
   -3.2097   -1.4039   -0.0006 N   0  0  0  0  0  0  0  0  0  0  0  0
   -1.1597   -0.3873   -0.0008 N   0  0  0  0  0  0  0  0  0  0  0  0
    1.0244   -1.2582   -0.0004 N   0  0  0  0  0  0  0  0  0  0  0  0
    3.1535   -2.1686   -0.0002 N   0  0  0  0  0  0  0  0  0  0  0  0
    5.1178   -0.7753    0.0002 N   0  0  0  0  0  0  0  0  0  0  0  0
    5.3040   -3.1093    0.0003 N   0  0  0  0  0  0  0  0  0  0  0  0
   -4.1711   -2.4914   -0.0004 C   0  0  0  0  0  0  0  0  0  0  0  0
   -5.5907   -1.9127   -0.0007 C   0  0  0  0  0  0  0  0  0  0  0  0
   -3.9596   -3.3473   -1.2536 C   0  0  0  0  0  0  0  0  0  0  0  0
   -3.9663   -3.3486    1.2541 C   0  0  0  0  0  0  0  0  0  0  0  0
   -1.8306   -1.6134   -0.0004 C   0  0  0  0  0  0  0  0  0  0  0  0
    0.6916    1.1343    0.0001 C   0  0  0  0  0  0  0  0  0  0  0  0
    0.2366   -0.1618   -0.0004 C   0  0  0  0  0  0  0  0  0  0  0  0
   -0.1836    2.2875    0.0001 C   0  0  0  0  0  0  0  0  0  0  0  0
    2.0640    1.3116    0.0004 C   0  0  0  0  0  0  0  0  0  0  0  0
    2.9072    0.1907    0.0003 C   0  0  0  0  0  0  0  0  0  0  0  0
    2.3546   -1.0955    0.0000 C   0  0  0  0  0  0  0  0  0  0  0  0
   -0.6096    2.8493   -1.2078 C   0  0  0  0  0  0  0  0  0  0  0  0
   -0.6102    2.8487    1.2081 C   0  0  0  0  0  0  0  0  0  0  0  0
    4.2965    0.2879    0.0004 C   0  0  0  0  0  0  0  0  0  0  0  0
   -1.4531    3.9602   -1.2078 C   0  0  0  0  0  0  0  0  0  0  0  0
   -1.4537    3.9596    1.2081 C   0  0  0  0  0  0  0  0  0  0  0  0
   -1.8751    4.5153    0.0002 C   0  0  0  0  0  0  0  0  0  0  0  0
    4.4866   -1.9579    0.0003 C   0  0  0  0  0  0  0  0  0  0  0  0
   -5.7618   -1.2852    0.8819 H   0  0  0  0  0  0  0  0  0  0  0  0
   -6.3466   -2.7058   -0.0014 H   0  0  0  0  0  0  0  0  0  0  0  0
   -5.7609   -1.2851   -0.8833 H   0  0  0  0  0  0  0  0  0  0  0  0
   -4.7445   -4.1082   -1.3396 H   0  0  0  0  0  0  0  0  0  0  0  0
   -3.0052   -3.8817   -1.2573 H   0  0  0  0  0  0  0  0  0  0  0  0
   -3.9949   -2.7330   -2.1612 H   0  0  0  0  0  0  0  0  0  0  0  0
   -3.0104   -3.8801    1.2630 H   0  0  0  0  0  0  0  0  0  0  0  0
   -4.7499   -4.1113    1.3345 H   0  0  0  0  0  0  0  0  0  0  0  0
   -4.0083   -2.7348    2.1617 H   0  0  0  0  0  0  0  0  0  0  0  0
   -3.5538   -0.4484   -0.0008 H   0  0  0  0  0  0  0  0  0  0  0  0
   -1.7554    0.4351   -0.0010 H   0  0  0  0  0  0  0  0  0  0  0  0
    2.4927    2.3121    0.0006 H   0  0  0  0  0  0  0  0  0  0  0  0
    4.7984    1.2509    0.0005 H   0  0  0  0  0  0  0  0  0  0  0  0
   -1.7915    4.4061   -2.1397 H   0  0  0  0  0  0  0  0  0  0  0  0
   -1.7926    4.4051    2.1401 H   0  0  0  0  0  0  0  0  0  0  0  0
   -2.5320    5.3803    0.0002 H   0  0  0  0  0  0  0  0  0  0  0  0
    4.8741   -4.0239    0.0009 H   0  0  0  0  0  0  0  0  0  0  0  0
    6.3093   -3.0052    0.0011 H   0  0  0  0  0  0  0  0  0  0  0  0
  1 21  1  0  0  0  0
  2 22  1  0  0  0  0
  3 14  2  0  0  0  0
  4 10  1  0  0  0  0
  4 14  1  0  0  0  0
  4 37  1  0  0  0  0
  5 14  1  0  0  0  0
  5 16  1  0  0  0  0
  5 38  1  0  0  0  0
  6 16  1  0  0  0  0
  6 20  2  0  0  0  0
  7 20  1  0  0  0  0
  7 27  2  0  0  0  0
  8 23  2  0  0  0  0
  8 27  1  0  0  0  0
  9 27  1  0  0  0  0
  9 44  1  0  0  0  0
  9 45  1  0  0  0  0
 10 11  1  0  0  0  0
 10 12  1  0  0  0  0
 10 13  1  0  0  0  0
 11 28  1  0  0  0  0
 11 29  1  0  0  0  0
 11 30  1  0  0  0  0
 12 31  1  0  0  0  0
 12 32  1  0  0  0  0
 12 33  1  0  0  0  0
 13 34  1  0  0  0  0
 13 35  1  0  0  0  0
 13 36  1  0  0  0  0
 15 16  2  0  0  0  0
 15 17  1  0  0  0  0
 15 18  1  0  0  0  0
 17 21  2  0  0  0  0
 17 22  1  0  0  0  0
 18 19  2  0  0  0  0
 18 39  1  0  0  0  0
 19 20  1  0  0  0  0
 19 23  1  0  0  0  0
 21 24  1  0  0  0  0
 22 25  2  0  0  0  0
 23 40  1  0  0  0  0
 24 26  2  0  0  0  0
 24 41  1  0  0  0  0
 25 26  1  0  0  0  0
 25 42  1  0  0  0  0
 26 43  1  0  0  0  0
M  END
> <PUBCHEM_COMPOUND_CID>
5328112

> <PUBCHEM_CONFORMER_RMSD>
0.8

> <PUBCHEM_CONFORMER_DIVERSEORDER>
1
2
5
3
4

> <PUBCHEM_MMFF94_PARTIAL_CHARGES>
30
1 -0.18
10 0.3
14 0.69
16 0.43
18 -0.15
2 -0.18
20 0.62
21 0.18
22 0.18
23 0.16
24 -0.15
25 -0.15
26 -0.15
27 0.72
3 -0.57
37 0.37
38 0.37
39 0.15
4 -0.73
40 0.15
41 0.15
42 0.15
43 0.15
44 0.4
45 0.4
5 -0.55
6 -0.62
7 -0.62
8 -0.62
9 -0.9

> <PUBCHEM_EFFECTIVE_ROTOR_COUNT>
5

> <PUBCHEM_PHARMACOPHORE_FEATURES>
10
1 3 acceptor
1 4 donor
1 5 donor
1 8 acceptor
1 9 donor
4 10 11 12 13 hydrophobe
4 7 8 9 27 cation
6 17 21 22 24 25 26 rings
6 6 15 16 18 19 20 rings
6 7 8 19 20 23 27 rings

> <PUBCHEM_HEAVY_ATOM_COUNT>
27

> <PUBCHEM_ATOM_DEF_STEREO_COUNT>
0

> <PUBCHEM_ATOM_UDEF_STEREO_COUNT>
0

> <PUBCHEM_BOND_DEF_STEREO_COUNT>
0

> <PUBCHEM_BOND_UDEF_STEREO_COUNT>
0

> <PUBCHEM_ISOTOPIC_ATOM_COUNT>
0

> <PUBCHEM_COMPONENT_COUNT>
1

> <PUBCHEM_CACTVS_TAUTO_COUNT>
24

> <PUBCHEM_CONFORMER_ID>
00514CF000000001

> <PUBCHEM_MMFF94_ENERGY>
88.8506

> <PUBCHEM_FEATURE_SELFOVERLAP>
50.836

> <PUBCHEM_SHAPE_FINGERPRINT>
10050765 1 18338517418782111138
10411042 1 18410856594063546022
10688039 33 18335422382662702983
11045515 52 18409728499691646187
12166972 35 18128538365776946787
12549972 3 17700666516588141202
12788726 201 18334852818881990306
13004483 165 18411975879826007626
13052359 8 18122905317818492512
13134695 92 18196932395175191383
13140716 1 18411987953110692307
13540713 4 18129935669167613762
13540713 5 18115596938003335246
13631057 29 18411419510468988650
13690498 29 18270698471812622582
138480 1 15600327427009754657
13911987 19 17538589977196948428
13955234 65 17618511316929986427
14790565 3 17256529046018477316
14866123 147 18122064204350909251
15042514 8 18410859815647032195
15420108 30 17262980959170575896
15927050 60 17690000033385182798
16988056 13 18049142652525377333
17138139 8 17550622731677160805
17868525 174 18268152153226939145
17980427 26 17266930383236201797
18335252 114 18339066191164780431
20642791 178 17252866564496808964
21033648 144 18122612865918418364
21049683 271 17900831748798195660
21120745 212 18266484103376948780
21133410 127 17176289948559065197
21478907 32 18410292488795135402
21641784 216 18188506751862420964
22033318 11 17909031795877960443
2255824 54 17690843784215555975
23419403 2 17702925028845288433
23558518 356 18261962825917070362
23559900 14 17975406129996766699
283562 15 18335419054495844874
3380486 145 17839989117840127244
3383291 50 16753250112960630930
3886686 26 17614808874843212426
4409770 3 18266455396031325957
5104073 3 18196359331381358274
59755656 520 17765714616318962668
6443956 14 18193276523001815669
7164475 11 18408326575453764668
81228 2 18187087239195443144
9925002 15 18116174215008048036

> <PUBCHEM_SHAPE_MULTIPOLES>
523.63
8.82
6.32
1.59
0.07
4.6
0
-14.7
0
-3.71
0
-0.62
1.76
0

> <PUBCHEM_SHAPE_SELFOVERLAP>
1121.163

> <PUBCHEM_SHAPE_VOLUME>
292.3

> <PUBCHEM_COORDINATE_TYPE>
2
5
10

$$$$
9797370
  -OEChem-11282412143D

 40 43  0     0  0  0  0  0  0999 V2000
   -6.2278    2.0768   -0.5425 F   0  0  0  0  0  0  0  0  0  0  0  0
    5.6768   -1.2135   -0.4688 O   0  0  0  0  0  0  0  0  0  0  0  0
    5.4462    1.4353    0.3086 O   0  0  0  0  0  0  0  0  0  0  0  0
   -0.2852    1.6717    0.6298 N   0  0  0  0  0  0  0  0  0  0  0  0
   -1.5729    1.2454    0.5635 N   0  0  0  0  0  0  0  0  0  0  0  0
   -2.5029   -0.9012   -0.0191 N   0  0  0  0  0  0  0  0  0  0  0  0
    0.6986   -1.6012   -0.3635 C   0  0  0  0  0  0  0  0  0  0  0  0
   -0.1429   -0.4309    0.0129 C   0  0  0  0  0  0  0  0  0  0  0  0
    2.0678   -0.9079   -0.2229 C   0  0  0  0  0  0  0  0  0  0  0  0
    0.5784    0.6923    0.3064 C   0  0  0  0  0  0  0  0  0  0  0  0
    1.9712    0.4549    0.1763 C   0  0  0  0  0  0  0  0  0  0  0  0
   -1.4718   -0.0431    0.1850 C   0  0  0  0  0  0  0  0  0  0  0  0
    3.3105   -1.4751   -0.4418 C   0  0  0  0  0  0  0  0  0  0  0  0
    3.0742    1.2579    0.3608 C   0  0  0  0  0  0  0  0  0  0  0  0
    4.4415   -0.6715   -0.2583 C   0  0  0  0  0  0  0  0  0  0  0  0
    4.3244    0.6766    0.1377 C   0  0  0  0  0  0  0  0  0  0  0  0
   -3.9037   -0.6636   -0.0248 C   0  0  0  0  0  0  0  0  0  0  0  0
   -4.3828    0.6147   -0.2856 C   0  0  0  0  0  0  0  0  0  0  0  0
   -4.7795   -1.7121    0.2300 C   0  0  0  0  0  0  0  0  0  0  0  0
    6.3131   -1.8231    0.6509 C   0  0  0  0  0  0  0  0  0  0  0  0
    5.9234    2.1474   -0.8298 C   0  0  0  0  0  0  0  0  0  0  0  0
   -5.7579    0.8478   -0.2917 C   0  0  0  0  0  0  0  0  0  0  0  0
   -6.1547   -1.4788    0.2239 C   0  0  0  0  0  0  0  0  0  0  0  0
   -6.6439   -0.1989   -0.0369 C   0  0  0  0  0  0  0  0  0  0  0  0
    0.5250   -1.9197   -1.3942 H   0  0  0  0  0  0  0  0  0  0  0  0
    0.6019   -2.4247    0.3480 H   0  0  0  0  0  0  0  0  0  0  0  0
    3.4047   -2.5119   -0.7470 H   0  0  0  0  0  0  0  0  0  0  0  0
    2.9801    2.2941    0.6661 H   0  0  0  0  0  0  0  0  0  0  0  0
   -0.1037    2.6308    0.9006 H   0  0  0  0  0  0  0  0  0  0  0  0
   -2.2896   -1.8876   -0.1572 H   0  0  0  0  0  0  0  0  0  0  0  0
   -3.7381    1.4507   -0.5309 H   0  0  0  0  0  0  0  0  0  0  0  0
   -4.4101   -2.7132    0.4357 H   0  0  0  0  0  0  0  0  0  0  0  0
    7.2886   -2.1978    0.3289 H   0  0  0  0  0  0  0  0  0  0  0  0
    5.7189   -2.6656    1.0184 H   0  0  0  0  0  0  0  0  0  0  0  0
    6.4665   -1.0937    1.4525 H   0  0  0  0  0  0  0  0  0  0  0  0
    6.8243    2.6947   -0.5390 H   0  0  0  0  0  0  0  0  0  0  0  0
    5.1735    2.8665   -1.1746 H   0  0  0  0  0  0  0  0  0  0  0  0
    6.1803    1.4559   -1.6384 H   0  0  0  0  0  0  0  0  0  0  0  0
   -6.8448   -2.2937    0.4225 H   0  0  0  0  0  0  0  0  0  0  0  0
   -7.7145   -0.0171   -0.0418 H   0  0  0  0  0  0  0  0  0  0  0  0
  1 22  1  0  0  0  0
  2 15  1  0  0  0  0
  2 20  1  0  0  0  0
  3 16  1  0  0  0  0
  3 21  1  0  0  0  0
  4  5  1  0  0  0  0
  4 10  1  0  0  0  0
  4 29  1  0  0  0  0
  5 12  2  0  0  0  0
  6 12  1  0  0  0  0
  6 17  1  0  0  0  0
  6 30  1  0  0  0  0
  7  8  1  0  0  0  0
  7  9  1  0  0  0  0
  7 25  1  0  0  0  0
  7 26  1  0  0  0  0
  8 10  2  0  0  0  0
  8 12  1  0  0  0  0
  9 11  1  0  0  0  0
  9 13  2  0  0  0  0
 10 11  1  0  0  0  0
 11 14  2  0  0  0  0
 13 15  1  0  0  0  0
 13 27  1  0  0  0  0
 14 16  1  0  0  0  0
 14 28  1  0  0  0  0
 15 16  2  0  0  0  0
 17 18  2  0  0  0  0
 17 19  1  0  0  0  0
 18 22  1  0  0  0  0
 18 31  1  0  0  0  0
 19 23  2  0  0  0  0
 19 32  1  0  0  0  0
 20 33  1  0  0  0  0
 20 34  1  0  0  0  0
 20 35  1  0  0  0  0
 21 36  1  0  0  0  0
 21 37  1  0  0  0  0
 21 38  1  0  0  0  0
 22 24  2  0  0  0  0
 23 24  1  0  0  0  0
 23 39  1  0  0  0  0
 24 40  1  0  0  0  0
M  END
> <PUBCHEM_COMPOUND_CID>
9797370

> <PUBCHEM_CONFORMER_RMSD>
0.8

> <PUBCHEM_CONFORMER_DIVERSEORDER>
1
11
18
12
5
9
6
7
3
13
16
15
14
10
2
17
20
4
8
21
19
22

> <PUBCHEM_MMFF94_PARTIAL_CHARGES>
32
1 -0.19
10 -0.2
11 0.05
12 0.37
13 -0.15
14 -0.15
15 0.08
16 0.08
17 0.1
18 -0.15
19 -0.15
2 -0.36
20 0.28
21 0.28
22 0.19
23 -0.15
24 -0.15
27 0.15
28 0.15
29 0.27
3 -0.36
30 0.4
31 0.15
32 0.15
39 0.15
4 0.3
40 0.15
5 -0.71
6 -0.58
7 0.32
8 -0.18
9 -0.14

> <PUBCHEM_EFFECTIVE_ROTOR_COUNT>
4.2

> <PUBCHEM_PHARMACOPHORE_FEATURES>
9
1 2 acceptor
1 3 acceptor
1 4 donor
1 6 donor
3 5 6 12 cation
5 4 5 8 10 12 rings
5 7 8 9 10 11 rings
6 17 18 19 22 23 24 rings
6 9 11 13 14 15 16 rings

> <PUBCHEM_HEAVY_ATOM_COUNT>
24

> <PUBCHEM_ATOM_DEF_STEREO_COUNT>
0

> <PUBCHEM_ATOM_UDEF_STEREO_COUNT>
0

> <PUBCHEM_BOND_DEF_STEREO_COUNT>
0

> <PUBCHEM_BOND_UDEF_STEREO_COUNT>
0

> <PUBCHEM_ISOTOPIC_ATOM_COUNT>
0

> <PUBCHEM_COMPONENT_COUNT>
1

> <PUBCHEM_CACTVS_TAUTO_COUNT>
5

> <PUBCHEM_CONFORMER_ID>
00957EFA00000001

> <PUBCHEM_MMFF94_ENERGY>
106.6104

> <PUBCHEM_FEATURE_SELFOVERLAP>
46.014

> <PUBCHEM_SHAPE_FINGERPRINT>
10835480 77 18411414016742106629
10906281 52 18201176398341842483
11578080 2 14058158383869841324
11719270 70 18201716228560779758
12166972 35 18113340803950645676
12236239 1 18335421274518806119
12516196 113 17704070707371408153
12616971 3 18131339822213661862
13533116 47 18410572886452479786
13862211 1 18272367585543624199
14251752 14 18335980887636007827
14251764 18 18130792278861643411
14933364 13 18408324393293925461
15183329 4 18341054038249217865
15196674 1 18412545422443127099
15788980 27 18186805785804176243
17844677 252 18410017645770195141
18335252 98 18263087758955118114
200 152 17917992776382557041
20028762 73 18202002101742510582
20281389 69 18187364320515574981
21236236 1 18059297561488912681
21267235 1 18272094868743604478
21279426 13 18411983516430542007
21315763 28 18409446981860214543
21792934 111 18201427061181130128
220451 1 17632580482845360743
22224240 67 15985094202969143390
23035841 295 18409730647333627755
23081809 10 18272650164490038055
23402539 116 18409726257755692975
23522609 53 18055946331119405009
23536379 177 18333449841780670859
23559900 14 18341887545942683161
23569943 247 16662035933667600450
29717793 49 17917997140158987726
3004659 81 18334576824341252802
335352 9 18413387631149185142
34797466 226 15554451838024109688
350125 39 18342175557669590432
4073 2 18113904896328554891
4214541 1 18410855452424482985
4325135 7 18337112357814935284
4340502 62 17167577207006515458
4463277 17 18412826897599081873
465052 167 18272092699442300190
5104073 3 18201438047960388816
5283173 99 18336262345607461817
542803 24 15647053759381639167
59755656 215 18339646642028627966
59755656 520 17603584132333880459

> <PUBCHEM_SHAPE_MULTIPOLES>
459.95
18.2
2.05
0.73
8.6
0.22
0.01
-0.04
1.2
-1.18
0.08
-0.29
0.05
0.08

> <PUBCHEM_SHAPE_SELFOVERLAP>
1027.245

> <PUBCHEM_SHAPE_VOLUME>
248.4

> <PUBCHEM_COORDINATE_TYPE>
2
5
10

$$$$
3894
  -OEChem-11282412143D

 47 49  0     1  0  0  0  0  0999 V2000
    2.0482    2.0201   -1.1736 O   0  0  0  0  0  0  0  0  0  0  0  0
   -2.5128   -1.4823    1.8383 O   0  0  0  0  0  0  0  0  0  0  0  0
   -2.3045    3.9437    1.4831 O   0  0  0  0  0  0  0  0  0  0  0  0
    5.7593   -1.5892    0.7222 O   0  0  0  0  0  0  0  0  0  0  0  0
   -2.1860    2.7617   -2.4307 O   0  0  0  0  0  0  0  0  0  0  0  0
   -3.6380    3.6237   -0.9091 O   0  0  0  0  0  0  0  0  0  0  0  0
    0.3459   -0.7310    0.0449 N   0  0  3  0  0  0  0  0  0  0  0  0
    1.2953   -0.7326   -1.0505 C   0  0  0  0  0  0  0  0  0  0  0  0
    0.0870   -1.9668    0.7566 C   0  0  0  0  0  0  0  0  0  0  0  0
   -0.3273    0.4550    0.4046 C   0  0  0  0  0  0  0  0  0  0  0  0
    2.6460   -0.2350   -0.6239 C   0  0  0  0  0  0  0  0  0  0  0  0
   -1.1489   -2.6559    0.2546 C   0  0  0  0  0  0  0  0  0  0  0  0
   -1.1320    1.1100   -0.5277 C   0  0  0  0  0  0  0  0  0  0  0  0
   -0.1901    0.9718    1.6927 C   0  0  0  0  0  0  0  0  0  0  0  0
    2.9562    1.1181   -0.7065 C   0  0  0  0  0  0  0  0  0  0  0  0
    3.5805   -1.1476   -0.1463 C   0  0  0  0  0  0  0  0  0  0  0  0
   -2.3889   -2.3796    0.8205 C   0  0  0  0  0  0  0  0  0  0  0  0
   -1.7995    2.2820   -0.1718 C   0  0  0  0  0  0  0  0  0  0  0  0
   -1.0336   -3.5739   -0.7838 C   0  0  0  0  0  0  0  0  0  0  0  0
   -0.8576    2.1436    2.0489 C   0  0  0  0  0  0  0  0  0  0  0  0
   -1.6623    2.7989    1.1166 C   0  0  0  0  0  0  0  0  0  0  0  0
    4.8403   -0.7017    0.2534 C   0  0  0  0  0  0  0  0  0  0  0  0
    4.2161    1.5639   -0.3065 C   0  0  0  0  0  0  0  0  0  0  0  0
   -3.5270   -3.0288    0.3421 C   0  0  0  0  0  0  0  0  0  0  0  0
   -2.1718   -4.2231   -1.2620 C   0  0  0  0  0  0  0  0  0  0  0  0
    5.1581    0.6540    0.1732 C   0  0  0  0  0  0  0  0  0  0  0  0
   -3.4184   -3.9506   -0.6991 C   0  0  0  0  0  0  0  0  0  0  0  0
   -2.6337    2.9517   -1.1601 C   0  0  0  0  0  0  0  0  0  0  0  0
    0.9273   -0.1509   -1.9054 H   0  0  0  0  0  0  0  0  0  0  0  0
    1.4049   -1.7460   -1.4598 H   0  0  0  0  0  0  0  0  0  0  0  0
    0.0183   -1.8016    1.8395 H   0  0  0  0  0  0  0  0  0  0  0  0
    0.9403   -2.6511    0.6561 H   0  0  0  0  0  0  0  0  0  0  0  0
   -1.2513    0.6828   -1.5207 H   0  0  0  0  0  0  0  0  0  0  0  0
    0.4411    0.4806    2.4285 H   0  0  0  0  0  0  0  0  0  0  0  0
    3.3412   -2.2059   -0.0816 H   0  0  0  0  0  0  0  0  0  0  0  0
   -0.0690   -3.7975   -1.2310 H   0  0  0  0  0  0  0  0  0  0  0  0
   -0.7394    2.5362    3.0553 H   0  0  0  0  0  0  0  0  0  0  0  0
    4.4771    2.6173   -0.3635 H   0  0  0  0  0  0  0  0  0  0  0  0
   -4.5047   -2.8261    0.7712 H   0  0  0  0  0  0  0  0  0  0  0  0
   -2.0873   -4.9410   -2.0725 H   0  0  0  0  0  0  0  0  0  0  0  0
    6.1359    1.0140    0.4816 H   0  0  0  0  0  0  0  0  0  0  0  0
   -4.3046   -4.4562   -1.0717 H   0  0  0  0  0  0  0  0  0  0  0  0
    2.4426    2.9089   -1.1507 H   0  0  0  0  0  0  0  0  0  0  0  0
   -3.4489   -1.4196    2.0944 H   0  0  0  0  0  0  0  0  0  0  0  0
   -2.0896    4.1459    2.4098 H   0  0  0  0  0  0  0  0  0  0  0  0
    6.5729   -1.1084    0.9525 H   0  0  0  0  0  0  0  0  0  0  0  0
   -2.7534    3.2161   -3.0895 H   0  0  0  0  0  0  0  0  0  0  0  0
  1 15  1  0  0  0  0
  1 43  1  0  0  0  0
  2 17  1  0  0  0  0
  2 44  1  0  0  0  0
  3 21  1  0  0  0  0
  3 45  1  0  0  0  0
  4 22  1  0  0  0  0
  4 46  1  0  0  0  0
  5 28  1  0  0  0  0
  5 47  1  0  0  0  0
  6 28  2  0  0  0  0
  7  8  1  0  0  0  0
  7  9  1  0  0  0  0
  7 10  1  0  0  0  0
  8 11  1  0  0  0  0
  8 29  1  0  0  0  0
  8 30  1  0  0  0  0
  9 12  1  0  0  0  0
  9 31  1  0  0  0  0
  9 32  1  0  0  0  0
 10 13  2  0  0  0  0
 10 14  1  0  0  0  0
 11 15  2  0  0  0  0
 11 16  1  0  0  0  0
 12 17  1  0  0  0  0
 12 19  2  0  0  0  0
 13 18  1  0  0  0  0
 13 33  1  0  0  0  0
 14 20  2  0  0  0  0
 14 34  1  0  0  0  0
 15 23  1  0  0  0  0
 16 22  2  0  0  0  0
 16 35  1  0  0  0  0
 17 24  2  0  0  0  0
 18 21  2  0  0  0  0
 18 28  1  0  0  0  0
 19 25  1  0  0  0  0
 19 36  1  0  0  0  0
 20 21  1  0  0  0  0
 20 37  1  0  0  0  0
 22 26  1  0  0  0  0
 23 26  2  0  0  0  0
 23 38  1  0  0  0  0
 24 27  1  0  0  0  0
 24 39  1  0  0  0  0
 25 27  2  0  0  0  0
 25 40  1  0  0  0  0
 26 41  1  0  0  0  0
 27 42  1  0  0  0  0
M  END
> <PUBCHEM_COMPOUND_CID>
3894

> <PUBCHEM_CONFORMER_RMSD>
1

> <PUBCHEM_CONFORMER_DIVERSEORDER>
1
123
207
336
329
62
19
325
239
278
35
259
272
163
164
267
287
209
283
174
157
137
322
54
21
316
114
178
308
298
183
291
305
22
64
92
265
232
71
235
338
48
53
188
312
84
158
277
182
290
124
195
219
313
334
286
212
56
126
229
296
80
285
276
203
340
127
165
220
279
320
304
45
262
139
117
135
171
98
309
176
330
281
119
343
172
221
300
143
297
197
324
201
335
100
33
91
253
199
38
261
327
233
175
215
96
236
186
225
248
321
72
146
125
273
78
292
210
331
317
266
264
128
52
345
339
4
280
173
187
129
241
243
254
144
284
237
169
87
293
257
244
333
26
246
231
307
81
251
274
328
148
289
154
238
217
311
77
337
319
17
50
194
206
94
120
271
86
83
299
323
11
200
306
202
85
294
191
132
88
222
249
314
32
30
326
242
208
136
342
101
130
156
302
3
252
179
341
2
160
58
145
227
166
150
25
260
193
140
141
36
37
255
104
196
82
16
111
224
28
213
75
162
31
315
46
68
258
95
177
250
152
301
149
214
189
42
118
18
47
234
5
256
44
288
43
76
190
34
134
20
39
310
170
99
133
344
223
151
185
60
93
181
106
318
40
102
116
205
216
13
180
153
8
79
269
198
51
218
14
282
110
168
230
270
226
6
108
41
147
332
192
131
55
303
295
23
63
7
27
184
228
268
69
49
67
113
59
138
263
275
66
159
70
247
122
73
155
24
161
115
121
112
142
240
61
9
103
89
97
107
74
211
245
105
167
90
204
29
65
15
109
10
57
12

> <PUBCHEM_MMFF94_PARTIAL_CHARGES>
43
1 -0.53
10 0.1
11 -0.14
12 -0.14
13 -0.15
14 -0.15
15 0.08
16 -0.15
17 0.08
18 0.09
19 -0.15
2 -0.53
20 -0.15
21 0.08
22 0.08
23 -0.15
24 -0.15
25 -0.15
26 -0.15
27 -0.15
28 0.63
3 -0.53
33 0.15
34 0.15
35 0.15
36 0.15
37 0.15
38 0.15
39 0.15
4 -0.53
40 0.15
41 0.15
42 0.15
43 0.45
44 0.45
45 0.45
46 0.45
47 0.5
5 -0.65
6 -0.57
7 -0.84
8 0.51
9 0.51

> <PUBCHEM_EFFECTIVE_ROTOR_COUNT>
6

> <PUBCHEM_PHARMACOPHORE_FEATURES>
11
1 1 donor
1 2 donor
1 3 donor
1 4 donor
1 5 acceptor
1 6 acceptor
1 7 cation
3 5 6 28 anion
6 10 13 14 18 20 21 rings
6 11 15 16 22 23 26 rings
6 12 17 19 24 25 27 rings

> <PUBCHEM_HEAVY_ATOM_COUNT>
28

> <PUBCHEM_ATOM_DEF_STEREO_COUNT>
0

> <PUBCHEM_ATOM_UDEF_STEREO_COUNT>
0

> <PUBCHEM_BOND_DEF_STEREO_COUNT>
0

> <PUBCHEM_BOND_UDEF_STEREO_COUNT>
0

> <PUBCHEM_ISOTOPIC_ATOM_COUNT>
0

> <PUBCHEM_COMPONENT_COUNT>
1

> <PUBCHEM_CACTVS_TAUTO_COUNT>
62

> <PUBCHEM_CONFORMER_ID>
00000F3600000001

> <PUBCHEM_MMFF94_ENERGY>
97.202

> <PUBCHEM_FEATURE_SELFOVERLAP>
55.879

> <PUBCHEM_SHAPE_FINGERPRINT>
11045515 52 18122061163529699143
11578080 2 17986663977211884112
11582403 64 17097767959517900401
121448 382 18129373800628111681
12156800 1 17975093734948495369
12160290 23 18192462759753597410
12422481 6 17974608777654368673
12788726 201 18336542836941677506
13004483 165 18339366391038247931
13134695 92 17836366321368673591
13681431 1 17474691901201716071
13899415 180 17907841148442596815
14068700 675 18193553609286763006
15420108 30 17905321828253529738
16728300 4 16304839666174712930
16988056 13 17617640495362754295
17138139 8 17839137958717929997
17980427 23 17129040544461386315
1813 80 17979093882736233031
19319366 153 17840296732389247637
20587220 17 17337902343714466137
20600515 1 17699030665991520630
20642791 105 18337662053694589762
21049683 271 17615693268015839279
21641784 216 17972051481054175604
23366157 5 17115225326507408683
23419403 2 17416110909605940577
283562 15 18336546122586481618
345986 75 18191004876582801130
38695281 34 17974840675417736677
4066623 53 18049415314044210207
4340502 62 18052841160380541137
4409770 3 18411410709585458495
7164475 11 18336265755879664086
79837 15 18268151950656737400
81228 2 18192740996504483954
9981440 41 18053101722564830072

> <PUBCHEM_SHAPE_MULTIPOLES>
536.03
8.24
5.91
1.61
11.72
2.12
0.07
-5.46
-0.33
-8.52
-1.01
-1
1.17
-0.3

> <PUBCHEM_SHAPE_SELFOVERLAP>
1172.344

> <PUBCHEM_SHAPE_VOLUME>
289.7

> <PUBCHEM_COORDINATE_TYPE>
2
5
10

$$$$
2052
  -OEChem-11282412143D

 20 20  0     0  0  0  0  0  0999 V2000
   -2.9812    0.9641   -1.7486 O   0  0  0  0  0  0  0  0  0  0  0  0
   -4.1600    0.0343    0.5905 O   0  0  0  0  0  0  0  0  0  0  0  0
    4.7407   -0.7390   -0.6050 N   0  0  0  0  0  0  0  0  0  0  0  0
    1.9123    2.2361    1.1513 N   0  0  0  0  0  0  0  0  0  0  0  0
   -0.1217   -0.6231   -0.1154 C   0  0  0  0  0  0  0  0  0  0  0  0
   -0.8869    0.0665   -1.0560 C   0  0  0  0  0  0  0  0  0  0  0  0
   -0.7134   -1.0891    1.0587 C   0  0  0  0  0  0  0  0  0  0  0  0
   -2.2439    0.2899   -0.8224 C   0  0  0  0  0  0  0  0  0  0  0  0
   -2.8355   -0.1763    0.3517 C   0  0  0  0  0  0  0  0  0  0  0  0
   -2.0703   -0.8658    1.2922 C   0  0  0  0  0  0  0  0  0  0  0  0
    1.2934   -0.8554   -0.3580 C   0  0  0  0  0  0  0  0  0  0  0  0
    2.3193   -0.0350   -0.0210 C   0  0  0  0  0  0  0  0  0  0  0  0
    3.6545   -0.4243   -0.3439 C   0  0  0  0  0  0  0  0  0  0  0  0
    2.0927    1.2170    0.6260 C   0  0  0  0  0  0  0  0  0  0  0  0
   -0.4341    0.4334   -1.9748 H   0  0  0  0  0  0  0  0  0  0  0  0
   -0.1303   -1.6285    1.8013 H   0  0  0  0  0  0  0  0  0  0  0  0
   -2.5186   -1.2345    2.2110 H   0  0  0  0  0  0  0  0  0  0  0  0
    1.5044   -1.7999   -0.8583 H   0  0  0  0  0  0  0  0  0  0  0  0
   -3.8963    1.0269   -1.4242 H   0  0  0  0  0  0  0  0  0  0  0  0
   -4.3933   -0.3578    1.4494 H   0  0  0  0  0  0  0  0  0  0  0  0
  1  8  1  0  0  0  0
  1 19  1  0  0  0  0
  2  9  1  0  0  0  0
  2 20  1  0  0  0  0
  3 13  3  0  0  0  0
  4 14  3  0  0  0  0
  5  6  2  0  0  0  0
  5  7  1  0  0  0  0
  5 11  1  0  0  0  0
  6  8  1  0  0  0  0
  6 15  1  0  0  0  0
  7 10  2  0  0  0  0
  7 16  1  0  0  0  0
  8  9  2  0  0  0  0
  9 10  1  0  0  0  0
 10 17  1  0  0  0  0
 11 12  2  0  0  0  0
 11 18  1  0  0  0  0
 12 13  1  0  0  0  0
 12 14  1  0  0  0  0
M  END
> <PUBCHEM_COMPOUND_CID>
2052

> <PUBCHEM_CONFORMER_RMSD>
0.4

> <PUBCHEM_CONFORMER_DIVERSEORDER>
1
5
3
4
6
2

> <PUBCHEM_MMFF94_PARTIAL_CHARGES>
20
1 -0.53
10 -0.15
11 -0.18
12 0.13
13 0.49
14 0.49
15 0.15
16 0.15
17 0.15
18 0.15
19 0.45
2 -0.53
20 0.45
3 -0.56
4 -0.56
5 0.03
6 -0.15
7 -0.15
8 0.08
9 0.08

> <PUBCHEM_EFFECTIVE_ROTOR_COUNT>
1

> <PUBCHEM_PHARMACOPHORE_FEATURES>
5
1 1 donor
1 2 donor
1 3 acceptor
1 4 acceptor
6 5 6 7 8 9 10 rings

> <PUBCHEM_HEAVY_ATOM_COUNT>
14

> <PUBCHEM_ATOM_DEF_STEREO_COUNT>
0

> <PUBCHEM_ATOM_UDEF_STEREO_COUNT>
0

> <PUBCHEM_BOND_DEF_STEREO_COUNT>
0

> <PUBCHEM_BOND_UDEF_STEREO_COUNT>
0

> <PUBCHEM_ISOTOPIC_ATOM_COUNT>
0

> <PUBCHEM_COMPONENT_COUNT>
1

> <PUBCHEM_CACTVS_TAUTO_COUNT>
10

> <PUBCHEM_CONFORMER_ID>
0000080400000001

> <PUBCHEM_MMFF94_ENERGY>
29.9003

> <PUBCHEM_FEATURE_SELFOVERLAP>
25.376

> <PUBCHEM_SHAPE_FINGERPRINT>
10857977 72 17458343074209418695
12186901 62 17312823749281038446
124424 183 18408600336537485522
12916754 54 18130781325956703511
12932764 1 18261101997916062754
15653759 3 18040997362463743760
15775835 57 17060059314652670408
16945 1 18271794696982775095
18175812 5 18336272339621585839
18186145 218 18271515463994765275
20510252 161 17531248322956189501
20645476 183 16917348113258445279
20653085 51 18202275935623228217
21119208 17 16845575292304732395
21130352 189 18343021107907449832
21639500 275 17916576673861999936
23175994 123 18340498785409953876
23236772 104 14707213218549141452
23402539 116 12823013062900947835
23598294 1 16298375851641713613
3286 77 18342742969803576523
74978 22 17916866940868744126
77492 1 16558753429340044426
81228 2 17611185248894086387

> <PUBCHEM_SHAPE_MULTIPOLES>
266.41
6.92
1.34
1.28
2.83
0.24
0.24
0.06
-0.79
-0.2
0.33
0.11
0.46
1.4

> <PUBCHEM_SHAPE_SELFOVERLAP>
562.318

> <PUBCHEM_SHAPE_VOLUME>
145.2

> <PUBCHEM_COORDINATE_TYPE>
2
5
10

$$$$
57928403
  -OEChem-11282412143D

 46 50  0     1  0  0  0  0  0999 V2000
   -4.7838    1.6391   -1.1022 O   0  0  0  0  0  0  0  0  0  0  0  0
    0.7135   -3.0184   -0.9979 O   0  0  0  0  0  0  0  0  0  0  0  0
    0.2281   -0.1451    0.8462 N   0  0  0  0  0  0  0  0  0  0  0  0
    4.1679   -0.1938   -0.7172 N   0  0  0  0  0  0  0  0  0  0  0  0
    4.1124    2.1748   -0.2809 N   0  0  0  0  0  0  0  0  0  0  0  0
    1.5325   -3.3722    1.1146 N   0  0  0  0  0  0  0  0  0  0  0  0
   -1.4283   -0.0883   -0.9767 C   0  0  2  0  0  0  0  0  0  0  0  0
   -1.9789    0.8523    1.3016 C   0  0  1  0  0  0  0  0  0  0  0  0
   -3.7076    0.9035   -0.5378 C   0  0  0  0  0  0  0  0  0  0  0  0
   -3.0745   -1.2900    0.5221 C   0  0  0  0  0  0  0  0  0  0  0  0
   -0.8563    0.6235    0.2682 C   0  0  0  0  0  0  0  0  0  0  0  0
   -2.5976    0.7108   -1.5837 C   0  0  0  0  0  0  0  0  0  0  0  0
   -3.1375    1.6539    0.6783 C   0  0  0  0  0  0  0  0  0  0  0  0
   -1.9639   -1.4662   -0.5322 C   0  0  0  0  0  0  0  0  0  0  0  0
   -2.5155   -0.5267    1.7387 C   0  0  0  0  0  0  0  0  0  0  0  0
   -4.2242   -0.4757   -0.0919 C   0  0  0  0  0  0  0  0  0  0  0  0
    1.5140   -0.1529    0.3380 C   0  0  0  0  0  0  0  0  0  0  0  0
    2.2709    1.0262    0.2455 C   0  0  0  0  0  0  0  0  0  0  0  0
    2.1000   -1.3387   -0.1015 C   0  0  0  0  0  0  0  0  0  0  0  0
    3.5557    0.9229   -0.2799 C   0  0  0  0  0  0  0  0  0  0  0  0
    2.0665    2.3945    0.5657 C   0  0  0  0  0  0  0  0  0  0  0  0
    3.3932   -1.2978   -0.6051 C   0  0  0  0  0  0  0  0  0  0  0  0
    1.3972   -2.6128   -0.0429 C   0  0  0  0  0  0  0  0  0  0  0  0
    3.2162    3.0769    0.2308 C   0  0  0  0  0  0  0  0  0  0  0  0
   -0.6482   -0.2285   -1.7341 H   0  0  0  0  0  0  0  0  0  0  0  0
   -1.5878    1.3846    2.1767 H   0  0  0  0  0  0  0  0  0  0  0  0
   -3.4464   -2.2709    0.8386 H   0  0  0  0  0  0  0  0  0  0  0  0
   -0.4977    1.6106   -0.0444 H   0  0  0  0  0  0  0  0  0  0  0  0
   -2.9954    0.1989   -2.4694 H   0  0  0  0  0  0  0  0  0  0  0  0
   -2.2414    1.6861   -1.9399 H   0  0  0  0  0  0  0  0  0  0  0  0
   -2.7894    2.6508    0.3784 H   0  0  0  0  0  0  0  0  0  0  0  0
   -3.9280    1.8264    1.4200 H   0  0  0  0  0  0  0  0  0  0  0  0
   -1.1928   -2.0951   -0.0954 H   0  0  0  0  0  0  0  0  0  0  0  0
   -2.3575   -2.0087   -1.4007 H   0  0  0  0  0  0  0  0  0  0  0  0
   -3.3199   -0.3815    2.4722 H   0  0  0  0  0  0  0  0  0  0  0  0
   -1.7607   -1.1264    2.2558 H   0  0  0  0  0  0  0  0  0  0  0  0
   -4.6603   -1.0104   -0.9457 H   0  0  0  0  0  0  0  0  0  0  0  0
   -5.0411   -0.3574    0.6318 H   0  0  0  0  0  0  0  0  0  0  0  0
    0.0022   -0.9342    1.4397 H   0  0  0  0  0  0  0  0  0  0  0  0
   -4.4409    2.5059   -1.3791 H   0  0  0  0  0  0  0  0  0  0  0  0
    1.1864    2.8446    1.0035 H   0  0  0  0  0  0  0  0  0  0  0  0
    3.8760   -2.2076   -0.9550 H   0  0  0  0  0  0  0  0  0  0  0  0
    5.0420    2.3978   -0.6084 H   0  0  0  0  0  0  0  0  0  0  0  0
    3.4765    4.1227    0.3141 H   0  0  0  0  0  0  0  0  0  0  0  0
    2.0917   -3.0599    1.9021 H   0  0  0  0  0  0  0  0  0  0  0  0
    1.0689   -4.2699    1.2067 H   0  0  0  0  0  0  0  0  0  0  0  0
  1  9  1  0  0  0  0
  1 40  1  0  0  0  0
  2 23  2  0  0  0  0
  3 11  1  0  0  0  0
  3 17  1  0  0  0  0
  3 39  1  0  0  0  0
  4 20  2  0  0  0  0
  4 22  1  0  0  0  0
  5 20  1  0  0  0  0
  5 24  1  0  0  0  0
  5 43  1  0  0  0  0
  6 23  1  0  0  0  0
  6 45  1  0  0  0  0
  6 46  1  0  0  0  0
  7 11  1  0  0  0  0
  7 12  1  0  0  0  0
  7 14  1  0  0  0  0
  7 25  1  0  0  0  0
  8 11  1  0  0  0  0
  8 13  1  0  0  0  0
  8 15  1  0  0  0  0
  8 26  1  0  0  0  0
  9 12  1  0  0  0  0
  9 13  1  0  0  0  0
  9 16  1  0  0  0  0
 10 14  1  0  0  0  0
 10 15  1  0  0  0  0
 10 16  1  0  0  0  0
 10 27  1  0  0  0  0
 11 28  1  0  0  0  0
 12 29  1  0  0  0  0
 12 30  1  0  0  0  0
 13 31  1  0  0  0  0
 13 32  1  0  0  0  0
 14 33  1  0  0  0  0
 14 34  1  0  0  0  0
 15 35  1  0  0  0  0
 15 36  1  0  0  0  0
 16 37  1  0  0  0  0
 16 38  1  0  0  0  0
 17 18  2  0  0  0  0
 17 19  1  0  0  0  0
 18 20  1  0  0  0  0
 18 21  1  0  0  0  0
 19 22  2  0  0  0  0
 19 23  1  0  0  0  0
 21 24  2  0  0  0  0
 21 41  1  0  0  0  0
 22 42  1  0  0  0  0
 24 44  1  0  0  0  0
M  END
> <PUBCHEM_COMPOUND_CID>
57928403

> <PUBCHEM_CONFORMER_RMSD>
0.8

> <PUBCHEM_CONFORMER_DIVERSEORDER>
1
2
8
7
3
4
5
6

> <PUBCHEM_MMFF94_PARTIAL_CHARGES>
23
1 -0.68
11 0.37
17 0.1
19 0.09
2 -0.57
20 0.11
21 -0.15
22 0.16
23 0.54
24 -0.3
3 -0.87
39 0.4
4 -0.57
40 0.4
41 0.15
42 0.15
43 0.27
44 0.15
45 0.37
46 0.37
5 0.03
6 -0.8
9 0.28

> <PUBCHEM_EFFECTIVE_ROTOR_COUNT>
4.2

> <PUBCHEM_PHARMACOPHORE_FEATURES>
14
1 1 acceptor
1 1 donor
1 2 acceptor
1 3 cation
1 3 donor
1 5 donor
1 6 donor
3 4 5 20 cation
5 5 18 20 21 24 rings
6 4 17 18 19 20 22 rings
6 7 8 10 11 14 15 rings
6 7 8 9 11 12 13 rings
6 7 9 10 12 14 16 rings
6 8 9 10 13 15 16 rings

> <PUBCHEM_HEAVY_ATOM_COUNT>
24

> <PUBCHEM_ATOM_DEF_STEREO_COUNT>
2

> <PUBCHEM_ATOM_UDEF_STEREO_COUNT>
0

> <PUBCHEM_BOND_DEF_STEREO_COUNT>
0

> <PUBCHEM_BOND_UDEF_STEREO_COUNT>
0

> <PUBCHEM_ISOTOPIC_ATOM_COUNT>
0

> <PUBCHEM_COMPONENT_COUNT>
1

> <PUBCHEM_CACTVS_TAUTO_COUNT>
21

> <PUBCHEM_CONFORMER_ID>
0373EAD300000001

> <PUBCHEM_MMFF94_ENERGY>
83.2993

> <PUBCHEM_FEATURE_SELFOVERLAP>
83.681

> <PUBCHEM_SHAPE_FINGERPRINT>
10366900 7 18187090520196873511
10498660 4 18411417353583386669
10871710 139 16098840136598287492
11370993 70 18337951293687016432
12173636 292 18342173431544676045
12236239 1 17489874829789453704
12553582 1 17979927012107994354
12633257 1 18189332368566026963
12730499 353 18334298656425835811
12788726 201 17059507235957990057
12969540 114 17459450201315488125
13004483 165 17252281134674362218
13009979 54 17201085764387285298
13140716 1 18410291423927972552
13224815 77 18409731789404466944
13583140 156 18335425630148550167
14223421 5 18335990834759387467
14713325 29 17544200840983718288
14787075 74 17983013646210983959
14866123 147 15020755031294588387
16752209 62 16558461977491947745
18186145 218 18200606890115765404
18219364 16 18336554888313532608
19862831 5 17846498140445107068
19930381 70 18339641264887724761
200 152 18060135436176751145
20645477 70 18343021064503940454
21033648 29 18265326394974265624
22393880 68 18411419518346916534
2255824 54 18341612586251596210
23557571 272 17168161039254200115
23559900 14 18339634542946914891
238 59 18413102857669135306
3060560 45 18412260623699650438
350125 39 18266749154419428322
4280585 95 17553779365125778014
474 4 18411134753572995424
495365 180 18340470219039532529
5104073 3 18408605872402171385
543358 83 18268996371133672233
6287921 2 18189630512437680460
633830 44 17987821672925018680
7399639 24 18189053256259100833
81228 2 17329140785700753754
8272917 22 18270967834469172791
90525 40 17632585915625328343
9709674 26 18411141303498647303

> <PUBCHEM_SHAPE_MULTIPOLES>
462.25
8.23
3.16
1.22
0.9
1.03
0.08
-3.66
-1.47
-2.85
0.23
0.92
0.06
0.48

> <PUBCHEM_SHAPE_SELFOVERLAP>
1041.633

> <PUBCHEM_SHAPE_VOLUME>
236.1

> <PUBCHEM_COORDINATE_TYPE>
2
5
10

$$$$
76899983
  -OEChem-11282412143D

 60 63  0     1  0  0  0  0  0999 V2000
   -2.9200   -2.0714   -2.3379 Cl  0  0  0  0  0  0  0  0  0  0  0  0
   -5.0605    0.1451    2.1576 Cl  0  0  0  0  0  0  0  0  0  0  0  0
   -3.2779   -4.5646   -0.8335 F   0  0  0  0  0  0  0  0  0  0  0  0
    0.7039    0.0308   -1.7663 O   0  0  0  0  0  0  0  0  0  0  0  0
   -3.6219    1.2521    0.3587 O   0  0  0  0  0  0  0  0  0  0  0  0
    4.9081   -0.5514    0.3647 N   0  0  0  0  0  0  0  0  0  0  0  0
    7.4832   -1.7900    0.4675 N   0  0  0  0  0  0  0  0  0  0  0  0
    3.3679    0.9970    1.2767 N   0  0  0  0  0  0  0  0  0  0  0  0
   -1.2905    4.0538    0.0676 N   0  0  0  0  0  0  0  0  0  0  0  0
   -3.6636    4.0192    0.1448 N   0  0  0  0  0  0  0  0  0  0  0  0
    5.7720   -0.5321   -0.8335 C   0  0  2  0  0  0  0  0  0  0  0  0
    6.7446   -1.7221   -0.7932 C   0  0  0  0  0  0  0  0  0  0  0  0
    5.5687   -0.7698    1.6579 C   0  0  0  0  0  0  0  0  0  0  0  0
    6.5489   -1.9399    1.5807 C   0  0  0  0  0  0  0  0  0  0  0  0
    6.5139    0.8062   -0.9326 C   0  0  0  0  0  0  0  0  0  0  0  0
    3.6633    0.0862    0.3223 C   0  0  0  0  0  0  0  0  0  0  0  0
    2.8054   -0.2642   -0.7077 C   0  0  0  0  0  0  0  0  0  0  0  0
    1.5643    0.3603   -0.7618 C   0  0  0  0  0  0  0  0  0  0  0  0
    1.2240    1.3029    0.2021 C   0  0  0  0  0  0  0  0  0  0  0  0
    2.1527    1.5832    1.1915 C   0  0  0  0  0  0  0  0  0  0  0  0
   -0.0538    1.9800    0.1900 C   0  0  0  0  0  0  0  0  0  0  0  0
   -1.2441    1.2671    0.2828 C   0  0  0  0  0  0  0  0  0  0  0  0
   -3.8883    0.2900   -0.6625 C   0  0  1  0  0  0  0  0  0  0  0  0
   -2.4574    1.9459    0.2681 C   0  0  0  0  0  0  0  0  0  0  0  0
   -0.1306    3.3595    0.0851 C   0  0  0  0  0  0  0  0  0  0  0  0
   -3.9996   -1.0806   -0.0384 C   0  0  0  0  0  0  0  0  0  0  0  0
   -2.4267    3.3269    0.1597 C   0  0  0  0  0  0  0  0  0  0  0  0
   -5.1564    0.6832   -1.4122 C   0  0  0  0  0  0  0  0  0  0  0  0
    0.7894    0.7939   -2.9680 C   0  0  0  0  0  0  0  0  0  0  0  0
   -3.5765   -2.2061   -0.7455 C   0  0  0  0  0  0  0  0  0  0  0  0
   -4.5262   -1.2207    1.2456 C   0  0  0  0  0  0  0  0  0  0  0  0
   -3.6799   -3.4719   -0.1685 C   0  0  0  0  0  0  0  0  0  0  0  0
   -4.6298   -2.4865    1.8227 C   0  0  0  0  0  0  0  0  0  0  0  0
   -4.2068   -3.6120    1.1155 C   0  0  0  0  0  0  0  0  0  0  0  0
    5.1826   -0.6479   -1.7502 H   0  0  0  0  0  0  0  0  0  0  0  0
    6.1929   -2.6594   -0.9409 H   0  0  0  0  0  0  0  0  0  0  0  0
    7.4594   -1.6521   -1.6210 H   0  0  0  0  0  0  0  0  0  0  0  0
    4.8255   -0.9996    2.4317 H   0  0  0  0  0  0  0  0  0  0  0  0
    6.0895    0.1451    1.9665 H   0  0  0  0  0  0  0  0  0  0  0  0
    7.1133   -2.0060    2.5173 H   0  0  0  0  0  0  0  0  0  0  0  0
    6.0022   -2.8856    1.4778 H   0  0  0  0  0  0  0  0  0  0  0  0
    8.0258   -0.9365    0.5935 H   0  0  0  0  0  0  0  0  0  0  0  0
    5.8042    1.6336   -1.0424 H   0  0  0  0  0  0  0  0  0  0  0  0
    7.1742    0.8176   -1.8062 H   0  0  0  0  0  0  0  0  0  0  0  0
    7.1215    1.0170   -0.0470 H   0  0  0  0  0  0  0  0  0  0  0  0
    3.0571   -1.0201   -1.4446 H   0  0  0  0  0  0  0  0  0  0  0  0
    1.9516    2.3041    1.9789 H   0  0  0  0  0  0  0  0  0  0  0  0
   -1.2288    0.1845    0.3861 H   0  0  0  0  0  0  0  0  0  0  0  0
   -3.0701    0.3207   -1.3906 H   0  0  0  0  0  0  0  0  0  0  0  0
    0.7592    3.9774    0.0031 H   0  0  0  0  0  0  0  0  0  0  0  0
   -6.0188    0.7434   -0.7393 H   0  0  0  0  0  0  0  0  0  0  0  0
   -5.3955   -0.0286   -2.2087 H   0  0  0  0  0  0  0  0  0  0  0  0
   -5.0409    1.6768   -1.8588 H   0  0  0  0  0  0  0  0  0  0  0  0
    0.0136    0.4403   -3.6526 H   0  0  0  0  0  0  0  0  0  0  0  0
    1.7656    0.6502   -3.4418 H   0  0  0  0  0  0  0  0  0  0  0  0
    0.6219    1.8572   -2.7708 H   0  0  0  0  0  0  0  0  0  0  0  0
   -5.0375   -2.6132    2.8224 H   0  0  0  0  0  0  0  0  0  0  0  0
   -4.4824    3.5332   -0.1994 H   0  0  0  0  0  0  0  0  0  0  0  0
   -3.6272    5.0270    0.0557 H   0  0  0  0  0  0  0  0  0  0  0  0
   -4.2873   -4.5976    1.5645 H   0  0  0  0  0  0  0  0  0  0  0  0
  1 30  1  0  0  0  0
  2 31  1  0  0  0  0
  3 32  1  0  0  0  0
  4 18  1  0  0  0  0
  4 29  1  0  0  0  0
  5 23  1  0  0  0  0
  5 24  1  0  0  0  0
  6 11  1  0  0  0  0
  6 13  1  0  0  0  0
  6 16  1  0  0  0  0
  7 12  1  0  0  0  0
  7 14  1  0  0  0  0
  7 42  1  0  0  0  0
  8 16  2  0  0  0  0
  8 20  1  0  0  0  0
  9 25  2  0  0  0  0
  9 27  1  0  0  0  0
 10 27  1  0  0  0  0
 10 58  1  0  0  0  0
 10 59  1  0  0  0  0
 11 12  1  0  0  0  0
 11 15  1  0  0  0  0
 11 35  1  0  0  0  0
 12 36  1  0  0  0  0
 12 37  1  0  0  0  0
 13 14  1  0  0  0  0
 13 38  1  0  0  0  0
 13 39  1  0  0  0  0
 14 40  1  0  0  0  0
 14 41  1  0  0  0  0
 15 43  1  0  0  0  0
 15 44  1  0  0  0  0
 15 45  1  0  0  0  0
 16 17  1  0  0  0  0
 17 18  2  0  0  0  0
 17 46  1  0  0  0  0
 18 19  1  0  0  0  0
 19 20  2  0  0  0  0
 19 21  1  0  0  0  0
 20 47  1  0  0  0  0
 21 22  2  0  0  0  0
 21 25  1  0  0  0  0
 22 24  1  0  0  0  0
 22 48  1  0  0  0  0
 23 26  1  0  0  0  0
 23 28  1  0  0  0  0
 23 49  1  0  0  0  0
 24 27  2  0  0  0  0
 25 50  1  0  0  0  0
 26 30  1  0  0  0  0
 26 31  2  0  0  0  0
 28 51  1  0  0  0  0
 28 52  1  0  0  0  0
 28 53  1  0  0  0  0
 29 54  1  0  0  0  0
 29 55  1  0  0  0  0
 29 56  1  0  0  0  0
 30 32  2  0  0  0  0
 31 33  1  0  0  0  0
 32 34  1  0  0  0  0
 33 34  2  0  0  0  0
 33 57  1  0  0  0  0
 34 60  1  0  0  0  0
M  END
> <PUBCHEM_COMPOUND_CID>
76899983

> <PUBCHEM_CONFORMER_RMSD>
1.2

> <PUBCHEM_CONFORMER_DIVERSEORDER>
1
56
89
109
78
75
106
120
113
72
101
60
100
114
108
28
92
50
13
76
125
86
93
110
31
63
96
43
70
64
42
58
95
37
51
53
81
20
25
68
57
88
44
36
47
74
71
122
29
107
34
90
9
116
115
48
85
16
87
104
82
10
123
80
39
91
105
59
128
102
19
112
22
18
26
73
45
14
61
32
79
99
12
66
124
52
15
67
126
27
94
30
97
119
65
21
4
3
69
40
49
54
5
118
77
7
35
98
84
38
6
103
121
33
23
24
8
111
2
46
55
83
127
117
17
11
62
41

> <PUBCHEM_MMFF94_PARTIAL_CHARGES>
39
1 -0.18
10 -0.9
11 0.37
12 0.27
13 0.37
14 0.27
16 0.41
17 -0.15
18 0.08
2 -0.18
20 0.16
22 -0.15
23 0.42
24 0.08
25 0.16
26 -0.14
27 0.41
29 0.28
3 -0.19
30 0.18
31 0.18
32 0.19
33 -0.15
34 -0.15
4 -0.36
42 0.36
46 0.15
47 0.15
48 0.15
5 -0.36
50 0.15
57 0.15
58 0.4
59 0.4
6 -0.84
60 0.15
7 -0.9
8 -0.62
9 -0.62

> <PUBCHEM_EFFECTIVE_ROTOR_COUNT>
7.2

> <PUBCHEM_PHARMACOPHORE_FEATURES>
12
1 10 cation
1 10 donor
1 4 acceptor
1 5 acceptor
1 7 cation
1 7 donor
1 9 acceptor
3 6 8 16 cation
6 26 30 31 32 33 34 rings
6 6 7 11 12 13 14 rings
6 8 16 17 18 19 20 rings
6 9 21 22 24 25 27 rings

> <PUBCHEM_HEAVY_ATOM_COUNT>
34

> <PUBCHEM_ATOM_DEF_STEREO_COUNT>
2

> <PUBCHEM_ATOM_UDEF_STEREO_COUNT>
0

> <PUBCHEM_BOND_DEF_STEREO_COUNT>
0

> <PUBCHEM_BOND_UDEF_STEREO_COUNT>
0

> <PUBCHEM_ISOTOPIC_ATOM_COUNT>
0

> <PUBCHEM_COMPONENT_COUNT>
1

> <PUBCHEM_CACTVS_TAUTO_COUNT>
2

> <PUBCHEM_CONFORMER_ID>
0495668F00000001

> <PUBCHEM_MMFF94_ENERGY>
138.7221

> <PUBCHEM_FEATURE_SELFOVERLAP>
60.897

> <PUBCHEM_SHAPE_FINGERPRINT>
10010297 198 17840855593233291588
10391435 84 18337096943752258008
10928967 22 18120105119770434691
11377469 6 17603872199663111017
11387372 6 18121777227959104550
117089 54 17899430949927317883
11763715 3 18188790425804923156
12166972 35 17604154829864302366
12422481 6 17346606295953186078
12522641 68 16449230853186747284
12633257 1 17274830206830080293
13009979 54 18187092788013498197
1361 87 17388258111628418171
13690498 29 17894630383486007509
13782708 43 18130787850486565042
14114206 34 17822838871272407913
14150023 24 17764030169064818281
14279260 333 18114740435235472610
14844126 61 18409166572125097105
14856354 85 18341896307348783254
14950920 106 16773521091444261667
15183329 4 14129055920241935914
15250474 111 18115863015158429850
15320294 125 18114752538289197159
15467298 65 18041553621434301258
15684393 108 17458636635187761970
16110190 28 18200043952862512801
17686467 74 18408318892422475576
17913733 40 15410902825295286630
18603816 31 17896590692565081418
18927931 339 18412545388262704429
19246450 95 18195552345670330281
19311894 1 18267296706599615474
19611394 137 18130780132736374520
20691028 202 8357995406050648007
21133410 52 16327921163826192620
21133410 58 17548961709237860751
23559900 14 18337945783234251328
2838139 119 9223238433940589190
3383291 50 18341889702433074719
397830 11 18201706372211579704
44802255 64 17168700805359377221
484985 159 18335421271110146907
5080951 261 18115852028136350216
513202 73 18342458149074067086
5372103 7 13253693928829817779
563151 74 15266797532908567623
57527293 21 17916870251945767997
6673363 416 18268446767016323004
9896288 288 18267310829110526273

> <PUBCHEM_SHAPE_MULTIPOLES>
659.53
16.74
4.71
1.96
27.57
0.24
-0.62
-12.87
3.62
-6.98
0.42
-0.6
-0.74
-0.48

> <PUBCHEM_SHAPE_SELFOVERLAP>
1409.269

> <PUBCHEM_SHAPE_VOLUME>
369.9

> <PUBCHEM_COORDINATE_TYPE>
2
5
10

$$$$
78357765
  -OEChem-11282412143D

 59 63  0     0  0  0  0  0  0999 V2000
   -6.6509   -0.8976    0.7375 Br  0  0  0  0  0  0  0  0  0  0  0  0
   -3.0285    3.7997    0.1409 O   0  0  0  0  0  0  0  0  0  0  0  0
    4.4964    2.5357    0.0916 O   0  0  0  0  0  0  0  0  0  0  0  0
    0.2686   -5.0772    0.3519 N   0  0  0  0  0  0  0  0  0  0  0  0
   -1.9252   -2.3357   -0.6821 N   0  0  0  0  0  0  0  0  0  0  0  0
   -1.4734   -0.0613   -0.6132 N   0  0  0  0  0  0  0  0  0  0  0  0
   -3.6654   -0.9218   -0.0840 N   0  0  0  0  0  0  0  0  0  0  0  0
   -1.0168    2.2358   -0.5438 N   0  0  0  0  0  0  0  0  0  0  0  0
   -5.0717    2.8950    0.6258 N   0  0  0  0  0  0  0  0  0  0  0  0
   -0.5668   -2.6495   -1.0820 C   0  0  0  0  0  0  0  0  0  0  0  0
   -0.5176   -4.0265   -1.7472 C   0  0  0  0  0  0  0  0  0  0  0  0
    0.3625   -2.6127    0.1329 C   0  0  0  0  0  0  0  0  0  0  0  0
   -0.7074   -5.1671   -0.7421 C   0  0  0  0  0  0  0  0  0  0  0  0
    0.1427   -3.8033    1.0719 C   0  0  0  0  0  0  0  0  0  0  0  0
    0.1111   -6.2032    1.2722 C   0  0  0  0  0  0  0  0  0  0  0  0
   -2.3737   -1.0492   -0.4497 C   0  0  0  0  0  0  0  0  0  0  0  0
   -1.9411    1.1807   -0.3793 C   0  0  0  0  0  0  0  0  0  0  0  0
   -4.0909    0.3410    0.1400 C   0  0  0  0  0  0  0  0  0  0  0  0
   -3.2458    1.4360    0.0006 C   0  0  0  0  0  0  0  0  0  0  0  0
   -5.4924    0.5534    0.5431 C   0  0  0  0  0  0  0  0  0  0  0  0
   -3.7398    2.8070    0.2525 C   0  0  0  0  0  0  0  0  0  0  0  0
   -5.9029    1.8113    0.7625 C   0  0  0  0  0  0  0  0  0  0  0  0
    0.3788    2.3127   -0.3820 C   0  0  0  0  0  0  0  0  0  0  0  0
    1.1229    3.2027   -1.1566 C   0  0  0  0  0  0  0  0  0  0  0  0
    1.0185    1.4979    0.5520 C   0  0  0  0  0  0  0  0  0  0  0  0
    2.5065    3.2778   -0.9974 C   0  0  0  0  0  0  0  0  0  0  0  0
    2.4022    1.5728    0.7113 C   0  0  0  0  0  0  0  0  0  0  0  0
    3.1462    2.4627   -0.0634 C   0  0  0  0  0  0  0  0  0  0  0  0
    5.2002    1.3457    0.1734 C   0  0  0  0  0  0  0  0  0  0  0  0
    4.9232    0.3088   -0.7174 C   0  0  0  0  0  0  0  0  0  0  0  0
    6.1861    1.1842    1.1469 C   0  0  0  0  0  0  0  0  0  0  0  0
    5.6319   -0.8899   -0.6347 C   0  0  0  0  0  0  0  0  0  0  0  0
    6.8949   -0.0143    1.2294 C   0  0  0  0  0  0  0  0  0  0  0  0
    6.6177   -1.0513    0.3386 C   0  0  0  0  0  0  0  0  0  0  0  0
   -0.2261   -1.9175   -1.8254 H   0  0  0  0  0  0  0  0  0  0  0  0
    0.4552   -4.1489   -2.2416 H   0  0  0  0  0  0  0  0  0  0  0  0
   -1.2821   -4.1012   -2.5302 H   0  0  0  0  0  0  0  0  0  0  0  0
    0.2455   -1.6844    0.7019 H   0  0  0  0  0  0  0  0  0  0  0  0
    1.4027   -2.6307   -0.2194 H   0  0  0  0  0  0  0  0  0  0  0  0
   -0.5715   -6.1142   -1.2789 H   0  0  0  0  0  0  0  0  0  0  0  0
   -1.7339   -5.1646   -0.3541 H   0  0  0  0  0  0  0  0  0  0  0  0
   -0.8392   -3.7208    1.5560 H   0  0  0  0  0  0  0  0  0  0  0  0
    0.8985   -3.7517    1.8653 H   0  0  0  0  0  0  0  0  0  0  0  0
   -2.5885   -3.0856   -0.5265 H   0  0  0  0  0  0  0  0  0  0  0  0
    0.8709   -6.1649    2.0608 H   0  0  0  0  0  0  0  0  0  0  0  0
    0.2542   -7.1535    0.7458 H   0  0  0  0  0  0  0  0  0  0  0  0
   -0.8773   -6.2163    1.7456 H   0  0  0  0  0  0  0  0  0  0  0  0
   -1.4155    3.0407   -1.0196 H   0  0  0  0  0  0  0  0  0  0  0  0
   -6.9164    2.0541    1.0613 H   0  0  0  0  0  0  0  0  0  0  0  0
   -5.4656    3.8128    0.8117 H   0  0  0  0  0  0  0  0  0  0  0  0
    0.6369    3.8424   -1.8889 H   0  0  0  0  0  0  0  0  0  0  0  0
    0.4585    0.8127    1.1824 H   0  0  0  0  0  0  0  0  0  0  0  0
    3.0810    3.9724   -1.6041 H   0  0  0  0  0  0  0  0  0  0  0  0
    2.8704    0.9449    1.4648 H   0  0  0  0  0  0  0  0  0  0  0  0
    4.1758    0.4153   -1.4991 H   0  0  0  0  0  0  0  0  0  0  0  0
    6.4057    1.9885    1.8435 H   0  0  0  0  0  0  0  0  0  0  0  0
    5.4194   -1.6957   -1.3312 H   0  0  0  0  0  0  0  0  0  0  0  0
    7.6627   -0.1401    1.9872 H   0  0  0  0  0  0  0  0  0  0  0  0
    7.1703   -1.9842    0.4023 H   0  0  0  0  0  0  0  0  0  0  0  0
  1 20  1  0  0  0  0
  2 21  2  0  0  0  0
  3 28  1  0  0  0  0
  3 29  1  0  0  0  0
  4 13  1  0  0  0  0
  4 14  1  0  0  0  0
  4 15  1  0  0  0  0
  5 10  1  0  0  0  0
  5 16  1  0  0  0  0
  5 44  1  0  0  0  0
  6 16  1  0  0  0  0
  6 17  2  0  0  0  0
  7 16  2  0  0  0  0
  7 18  1  0  0  0  0
  8 17  1  0  0  0  0
  8 23  1  0  0  0  0
  8 48  1  0  0  0  0
  9 21  1  0  0  0  0
  9 22  1  0  0  0  0
  9 50  1  0  0  0  0
 10 11  1  0  0  0  0
 10 12  1  0  0  0  0
 10 35  1  0  0  0  0
 11 13  1  0  0  0  0
 11 36  1  0  0  0  0
 11 37  1  0  0  0  0
 12 14  1  0  0  0  0
 12 38  1  0  0  0  0
 12 39  1  0  0  0  0
 13 40  1  0  0  0  0
 13 41  1  0  0  0  0
 14 42  1  0  0  0  0
 14 43  1  0  0  0  0
 15 45  1  0  0  0  0
 15 46  1  0  0  0  0
 15 47  1  0  0  0  0
 17 19  1  0  0  0  0
 18 19  2  0  0  0  0
 18 20  1  0  0  0  0
 19 21  1  0  0  0  0
 20 22  2  0  0  0  0
 22 49  1  0  0  0  0
 23 24  2  0  0  0  0
 23 25  1  0  0  0  0
 24 26  1  0  0  0  0
 24 51  1  0  0  0  0
 25 27  2  0  0  0  0
 25 52  1  0  0  0  0
 26 28  2  0  0  0  0
 26 53  1  0  0  0  0
 27 28  1  0  0  0  0
 27 54  1  0  0  0  0
 29 30  2  0  0  0  0
 29 31  1  0  0  0  0
 30 32  1  0  0  0  0
 30 55  1  0  0  0  0
 31 33  2  0  0  0  0
 31 56  1  0  0  0  0
 32 34  2  0  0  0  0
 32 57  1  0  0  0  0
 33 34  1  0  0  0  0
 33 58  1  0  0  0  0
 34 59  1  0  0  0  0
M  END
> <PUBCHEM_COMPOUND_CID>
78357765

> <PUBCHEM_CONFORMER_RMSD>
1

> <PUBCHEM_CONFORMER_DIVERSEORDER>
1
102
81
71
109
88
107
131
113
122
130
43
104
45
86
31
92
105
49
134
60
133
117
132
75
125
97
128
59
139
47
83
98
17
94
24
41
137
76
127
90
64
96
110
120
21
85
66
51
30
108
36
101
46
118
69
129
44
136
37
35
100
19
34
114
62
42
12
67
95
87
27
39
135
32
121
26
112
119
73
20
55
38
79
93
78
77
80
106
40
70
99
111
13
68
84
57
7
123
140
15
9
10
115
58
56
48
65
91
116
82
8
2
61
6
72
22
25
124
89
50
63
33
103
138
28
54
14
53
16
5
4
74
29
52
18
11
23
3
126

> <PUBCHEM_MMFF94_PARTIAL_CHARGES>
45
1 -0.11
10 0.37
13 0.27
14 0.27
15 0.27
16 0.72
17 0.41
18 0.34
19 0.09
2 -0.57
20 0.08
21 0.54
22 -0.04
23 0.1
24 -0.15
25 -0.15
26 -0.15
27 -0.15
28 0.08
29 0.08
3 -0.17
30 -0.15
31 -0.15
32 -0.15
33 -0.15
34 -0.15
4 -0.81
44 0.4
48 0.4
49 0.15
5 -0.87
50 0.37
51 0.15
52 0.15
53 0.15
54 0.15
55 0.15
56 0.15
57 0.15
58 0.15
59 0.15
6 -0.62
7 -0.62
8 -0.6
9 -0.54

> <PUBCHEM_EFFECTIVE_ROTOR_COUNT>
7.2

> <PUBCHEM_PHARMACOPHORE_FEATURES>
13
1 1 hydrophobe
1 2 acceptor
1 3 acceptor
1 4 cation
1 5 donor
1 8 donor
1 9 donor
4 5 6 7 16 cation
6 23 24 25 26 27 28 rings
6 29 30 31 32 33 34 rings
6 4 10 11 12 13 14 rings
6 6 7 16 17 18 19 rings
6 9 18 19 20 21 22 rings

> <PUBCHEM_HEAVY_ATOM_COUNT>
34

> <PUBCHEM_ATOM_DEF_STEREO_COUNT>
0

> <PUBCHEM_ATOM_UDEF_STEREO_COUNT>
0

> <PUBCHEM_BOND_DEF_STEREO_COUNT>
0

> <PUBCHEM_BOND_UDEF_STEREO_COUNT>
0

> <PUBCHEM_ISOTOPIC_ATOM_COUNT>
0

> <PUBCHEM_COMPONENT_COUNT>
1

> <PUBCHEM_CACTVS_TAUTO_COUNT>
29

> <PUBCHEM_CONFORMER_ID>
04ABA50500000001

> <PUBCHEM_MMFF94_ENERGY>
114.6194

> <PUBCHEM_FEATURE_SELFOVERLAP>
66.002

> <PUBCHEM_SHAPE_FINGERPRINT>
10305334 12 18342173383968090503
10940486 97 18263084478096541772
11135926 11 18411695475430199773
11297010 23 18190160331815669429
11578080 2 16806995543196024861
12107183 9 18410570717351355904
14028597 1 17560532685870701697
14040221 310 17974866257387956396
14790565 3 18411702049927701736
14866123 147 18268707380339168663
15250474 111 18121494924222199236
15274700 242 17970323985552799426
15320294 125 18187634796434325574
15927050 60 18342174441326402727
16628084 112 18049155863797631863
16719943 64 18411700997586757298
19301679 30 17616819172508695986
21133410 171 17047055507640176710
21133665 82 18340492171725392534
22223350 30 17912083060128473993
229767 44 18411135852963342908
23516275 137 18118986701970500602
23569917 315 18341334496063374775
3383291 50 18410008879167158931
338550 245 18335987544978202988
38695281 34 18411981330028372738
3882209 13 17405955906559962142
4073 2 18124030389683565624
463206 1 18337387270841155640
469060 322 15892224695936386433
5265222 85 18339371841684328788
5385378 56 18198351650287081673
5912855 24 17688318197311534196
6679774 75 18115042869019370122
79837 15 18339648965769146859
86090 222 18128269895886881606

> <PUBCHEM_SHAPE_MULTIPOLES>
664.02
15.07
7.37
1.16
9.55
12.45
0.08
-8.37
-5.33
-2.09
0.03
0.44
0.67
-0.9

> <PUBCHEM_SHAPE_SELFOVERLAP>
1437.644

> <PUBCHEM_SHAPE_VOLUME>
368.2

> <PUBCHEM_COORDINATE_TYPE>
2
5
10

$$$$
89495685
  -OEChem-11282412143D

 76 81  0     0  0  0  0  0  0999 V2000
   -6.8217   -3.9654    0.6022 O   0  0  0  0  0  0  0  0  0  0  0  0
   -1.6864   -1.5353   -0.0304 N   0  0  0  0  0  0  0  0  0  0  0  0
   -3.6245    2.7864    0.0400 N   0  0  0  0  0  0  0  0  0  0  0  0
   -2.8268    0.5885    0.0233 N   0  0  0  0  0  0  0  0  0  0  0  0
    6.8089   -0.2776    0.0010 N   0  0  0  0  0  0  0  0  0  0  0  0
   -1.3148    2.4846   -0.1932 N   0  0  0  0  0  0  0  0  0  0  0  0
    8.8791    1.6773    0.5023 N   0  0  0  0  0  0  0  0  0  0  0  0
   -7.3614    3.1006    0.4259 C   0  0  0  0  0  0  0  0  0  0  0  0
   -8.2213    2.8334   -0.7783 C   0  0  0  0  0  0  0  0  0  0  0  0
   -8.4747    4.0472    0.0715 C   0  0  0  0  0  0  0  0  0  0  0  0
   -5.9314    3.5185    0.2548 C   0  0  0  0  0  0  0  0  0  0  0  0
   -2.8912   -2.4454    0.1260 C   0  0  0  0  0  0  0  0  0  0  0  0
   -3.6081   -2.2201    1.4691 C   0  0  0  0  0  0  0  0  0  0  0  0
   -3.8700   -2.3072   -1.0535 C   0  0  0  0  0  0  0  0  0  0  0  0
   -4.9709    2.3351    0.1950 C   0  0  0  0  0  0  0  0  0  0  0  0
   -4.8124   -3.1459    1.6191 C   0  0  0  0  0  0  0  0  0  0  0  0
   -5.0740   -3.2314   -0.8899 C   0  0  0  0  0  0  0  0  0  0  0  0
   -5.7799   -3.0080    0.4461 C   0  0  0  0  0  0  0  0  0  0  0  0
   -1.7184   -0.1667   -0.0685 C   0  0  0  0  0  0  0  0  0  0  0  0
   -0.3900   -1.9662   -0.1500 C   0  0  0  0  0  0  0  0  0  0  0  0
   -0.4140    0.2885   -0.2184 C   0  0  0  0  0  0  0  0  0  0  0  0
    0.4206   -0.8572   -0.2687 C   0  0  0  0  0  0  0  0  0  0  0  0
   -2.5258    1.9012   -0.0484 C   0  0  0  0  0  0  0  0  0  0  0  0
    1.8458   -0.9556   -0.4124 C   0  0  0  0  0  0  0  0  0  0  0  0
   -0.2376    1.6700   -0.2802 C   0  0  0  0  0  0  0  0  0  0  0  0
    6.7505    1.0637   -0.5926 C   0  0  0  0  0  0  0  0  0  0  0  0
    8.2037   -0.6825    0.2150 C   0  0  0  0  0  0  0  0  0  0  0  0
    7.4842    2.0817    0.2873 C   0  0  0  0  0  0  0  0  0  0  0  0
    8.9385    0.3352    1.0942 C   0  0  0  0  0  0  0  0  0  0  0  0
    6.1098   -1.2479   -0.8392 C   0  0  0  0  0  0  0  0  0  0  0  0
    4.6152   -1.1451   -0.6896 C   0  0  0  0  0  0  0  0  0  0  0  0
    2.6057   -1.5728    0.5814 C   0  0  0  0  0  0  0  0  0  0  0  0
    2.4708   -0.4334   -1.5448 C   0  0  0  0  0  0  0  0  0  0  0  0
    3.9904   -1.6675    0.4428 C   0  0  0  0  0  0  0  0  0  0  0  0
    3.8555   -0.5281   -1.6834 C   0  0  0  0  0  0  0  0  0  0  0  0
    9.5768    2.6474    1.3441 C   0  0  0  0  0  0  0  0  0  0  0  0
   -7.5073    2.4793    1.3021 H   0  0  0  0  0  0  0  0  0  0  0  0
   -8.9315    2.0180   -0.7182 H   0  0  0  0  0  0  0  0  0  0  0  0
   -7.7980    2.9878   -1.7631 H   0  0  0  0  0  0  0  0  0  0  0  0
   -9.3565    4.0465    0.7005 H   0  0  0  0  0  0  0  0  0  0  0  0
   -8.2203    5.0145   -0.3438 H   0  0  0  0  0  0  0  0  0  0  0  0
   -5.6585    4.1660    1.0979 H   0  0  0  0  0  0  0  0  0  0  0  0
   -5.8164    4.1304   -0.6496 H   0  0  0  0  0  0  0  0  0  0  0  0
   -2.4703   -3.4601    0.1173 H   0  0  0  0  0  0  0  0  0  0  0  0
   -3.9499   -1.1829    1.5612 H   0  0  0  0  0  0  0  0  0  0  0  0
   -2.9091   -2.3907    2.2969 H   0  0  0  0  0  0  0  0  0  0  0  0
   -3.3548   -2.5391   -1.9935 H   0  0  0  0  0  0  0  0  0  0  0  0
   -4.2296   -1.2758   -1.1439 H   0  0  0  0  0  0  0  0  0  0  0  0
   -4.4738   -4.1871    1.7003 H   0  0  0  0  0  0  0  0  0  0  0  0
   -5.3361   -2.9315    2.5586 H   0  0  0  0  0  0  0  0  0  0  0  0
   -5.7803   -3.0751   -1.7142 H   0  0  0  0  0  0  0  0  0  0  0  0
   -4.7539   -4.2785   -0.9689 H   0  0  0  0  0  0  0  0  0  0  0  0
   -5.0703    1.7430    1.1133 H   0  0  0  0  0  0  0  0  0  0  0  0
   -5.2536    1.6855   -0.6428 H   0  0  0  0  0  0  0  0  0  0  0  0
   -6.2362   -2.0110    0.4649 H   0  0  0  0  0  0  0  0  0  0  0  0
   -0.1559   -3.0231   -0.1424 H   0  0  0  0  0  0  0  0  0  0  0  0
   -3.4128    3.7763   -0.0115 H   0  0  0  0  0  0  0  0  0  0  0  0
   -7.4306   -3.8607   -0.1487 H   0  0  0  0  0  0  0  0  0  0  0  0
    0.7256    2.1514   -0.3945 H   0  0  0  0  0  0  0  0  0  0  0  0
    5.7128    1.4029   -0.6848 H   0  0  0  0  0  0  0  0  0  0  0  0
    7.1875    1.0682   -1.6006 H   0  0  0  0  0  0  0  0  0  0  0  0
    8.7298   -0.7934   -0.7429 H   0  0  0  0  0  0  0  0  0  0  0  0
    8.2360   -1.6554    0.7206 H   0  0  0  0  0  0  0  0  0  0  0  0
    7.4546    3.0564   -0.2148 H   0  0  0  0  0  0  0  0  0  0  0  0
    6.9559    2.1909    1.2444 H   0  0  0  0  0  0  0  0  0  0  0  0
    8.5040    0.3326    2.1032 H   0  0  0  0  0  0  0  0  0  0  0  0
    9.9841    0.0178    1.1885 H   0  0  0  0  0  0  0  0  0  0  0  0
    6.3826   -2.2716   -0.5457 H   0  0  0  0  0  0  0  0  0  0  0  0
    6.4072   -1.1641   -1.8935 H   0  0  0  0  0  0  0  0  0  0  0  0
    2.1387   -1.9821    1.4743 H   0  0  0  0  0  0  0  0  0  0  0  0
    1.8953    0.0482   -2.3318 H   0  0  0  0  0  0  0  0  0  0  0  0
    4.5717   -2.1496    1.2244 H   0  0  0  0  0  0  0  0  0  0  0  0
    4.3296   -0.1173   -2.5708 H   0  0  0  0  0  0  0  0  0  0  0  0
    9.5688    3.6380    0.8762 H   0  0  0  0  0  0  0  0  0  0  0  0
   10.6287    2.3653    1.4644 H   0  0  0  0  0  0  0  0  0  0  0  0
    9.1266    2.7326    2.3397 H   0  0  0  0  0  0  0  0  0  0  0  0
  1 18  1  0  0  0  0
  1 58  1  0  0  0  0
  2 12  1  0  0  0  0
  2 19  1  0  0  0  0
  2 20  1  0  0  0  0
  3 15  1  0  0  0  0
  3 23  1  0  0  0  0
  3 57  1  0  0  0  0
  4 19  2  0  0  0  0
  4 23  1  0  0  0  0
  5 26  1  0  0  0  0
  5 27  1  0  0  0  0
  5 30  1  0  0  0  0
  6 23  2  0  0  0  0
  6 25  1  0  0  0  0
  7 28  1  0  0  0  0
  7 29  1  0  0  0  0
  7 36  1  0  0  0  0
  8  9  1  0  0  0  0
  8 10  1  0  0  0  0
  8 11  1  0  0  0  0
  8 37  1  0  0  0  0
  9 10  1  0  0  0  0
  9 38  1  0  0  0  0
  9 39  1  0  0  0  0
 10 40  1  0  0  0  0
 10 41  1  0  0  0  0
 11 15  1  0  0  0  0
 11 42  1  0  0  0  0
 11 43  1  0  0  0  0
 12 13  1  0  0  0  0
 12 14  1  0  0  0  0
 12 44  1  0  0  0  0
 13 16  1  0  0  0  0
 13 45  1  0  0  0  0
 13 46  1  0  0  0  0
 14 17  1  0  0  0  0
 14 47  1  0  0  0  0
 14 48  1  0  0  0  0
 15 53  1  0  0  0  0
 15 54  1  0  0  0  0
 16 18  1  0  0  0  0
 16 49  1  0  0  0  0
 16 50  1  0  0  0  0
 17 18  1  0  0  0  0
 17 51  1  0  0  0  0
 17 52  1  0  0  0  0
 18 55  1  0  0  0  0
 19 21  1  0  0  0  0
 20 22  2  0  0  0  0
 20 56  1  0  0  0  0
 21 22  1  0  0  0  0
 21 25  2  0  0  0  0
 22 24  1  0  0  0  0
 24 32  2  0  0  0  0
 24 33  1  0  0  0  0
 25 59  1  0  0  0  0
 26 28  1  0  0  0  0
 26 60  1  0  0  0  0
 26 61  1  0  0  0  0
 27 29  1  0  0  0  0
 27 62  1  0  0  0  0
 27 63  1  0  0  0  0
 28 64  1  0  0  0  0
 28 65  1  0  0  0  0
 29 66  1  0  0  0  0
 29 67  1  0  0  0  0
 30 31  1  0  0  0  0
 30 68  1  0  0  0  0
 30 69  1  0  0  0  0
 31 34  2  0  0  0  0
 31 35  1  0  0  0  0
 32 34  1  0  0  0  0
 32 70  1  0  0  0  0
 33 35  2  0  0  0  0
 33 71  1  0  0  0  0
 34 72  1  0  0  0  0
 35 73  1  0  0  0  0
 36 74  1  0  0  0  0
 36 75  1  0  0  0  0
 36 76  1  0  0  0  0
M  END
> <PUBCHEM_COMPOUND_CID>
89495685

> <PUBCHEM_CONFORMER_RMSD>
1.2

> <PUBCHEM_CONFORMER_DIVERSEORDER>
1
32
62
51
68
70
48
12
67
55
43
60
39
64
58
10
19
72
63
7
13
69
9
15
65
59
38
66
3
25
71
50
73
36
22
16
29
61
35
46
6
45
2
26
31
52
30
34
53
21
33
41
47
56
27
54
17
11
28
20
49
8
5
23
18
4
42
44
37
40
57
24
14

> <PUBCHEM_MMFF94_PARTIAL_CHARGES>
44
1 -0.68
10 -0.2
11 0.09
12 0.26
15 0.37
18 0.28
19 0.11
2 0.05
20 -0.3
22 -0.05
23 0.72
24 0.05
25 0.16
26 0.27
27 0.27
28 0.27
29 0.27
3 -0.87
30 0.41
31 -0.14
32 -0.15
33 -0.15
34 -0.15
35 -0.15
36 0.27
37 0.1
38 0.1
39 0.1
4 -0.57
40 0.1
41 0.1
5 -0.81
56 0.15
57 0.4
58 0.4
59 0.15
6 -0.62
7 -0.81
70 0.15
71 0.15
72 0.15
73 0.15
8 -0.19
9 -0.2

> <PUBCHEM_EFFECTIVE_ROTOR_COUNT>
11

> <PUBCHEM_PHARMACOPHORE_FEATURES>
11
1 1 acceptor
1 1 donor
1 3 donor
1 5 cation
1 7 cation
4 3 4 6 23 cation
5 2 19 20 21 22 rings
6 12 13 14 16 17 18 rings
6 24 31 32 33 34 35 rings
6 4 6 19 21 23 25 rings
6 5 7 26 27 28 29 rings

> <PUBCHEM_HEAVY_ATOM_COUNT>
36

> <PUBCHEM_ATOM_DEF_STEREO_COUNT>
0

> <PUBCHEM_ATOM_UDEF_STEREO_COUNT>
0

> <PUBCHEM_BOND_DEF_STEREO_COUNT>
0

> <PUBCHEM_BOND_UDEF_STEREO_COUNT>
0

> <PUBCHEM_ISOTOPIC_ATOM_COUNT>
0

> <PUBCHEM_COMPONENT_COUNT>
1

> <PUBCHEM_CACTVS_TAUTO_COUNT>
4

> <PUBCHEM_CONFORMER_ID>
0555988500000001

> <PUBCHEM_MMFF94_ENERGY>
83.8168

> <PUBCHEM_FEATURE_SELFOVERLAP>
55.942

> <PUBCHEM_SHAPE_FINGERPRINT>
10050765 1 18337678619663337069
11409948 8 18336838528924926105
12539745 222 16516263928816203763
12758862 11 18271810073271936169
12838862 33 18261386690314265645
12925494 130 18341327868607083384
14040221 310 17916851522221274711
14394314 77 18260547809796041572
15064986 266 18408328787589314390
15183329 4 9871487408976555846
15347591 1 18341050731800458062
15664458 50 18199188390903374385
15840311 113 18338238155587035844
16067689 68 14996581589927062689
17686467 74 17985826162500515098
21360443 126 18410855430116605985
249057 25 17676496089924283182
2747138 104 18263659514109013234
4073 2 18412546483331886246
4403749 210 18272650164232004166
5104073 3 18260547793449927962
5171179 24 18058442270370279345
5969126 39 18411981403328062799
9663363 56 18337951315785254559

> <PUBCHEM_SHAPE_MULTIPOLES>
705.11
29.09
5.19
1.16
38.02
1.07
0.01
23.06
6.38
-15.26
0.99
0.55
-0.47
2.56

> <PUBCHEM_SHAPE_SELFOVERLAP>
1506.424

> <PUBCHEM_SHAPE_VOLUME>
390.2

> <PUBCHEM_COORDINATE_TYPE>
2
5
10

$$$$
71269142
  -OEChem-11282412143D

 62 66  0     0  0  0  0  0  0999 V2000
    8.5127   -2.0095    0.6174 O   0  0  0  0  0  0  0  0  0  0  0  0
   -1.1878    4.7783   -0.1994 O   0  0  0  0  0  0  0  0  0  0  0  0
   -3.0759   -1.2442   -0.0794 N   0  0  0  0  0  0  0  0  0  0  0  0
    4.9673    0.1055   -0.0155 N   0  0  0  0  0  0  0  0  0  0  0  0
   -1.6058    0.5531   -0.3570 N   0  0  0  0  0  0  0  0  0  0  0  0
   -3.9086    0.9079    0.2848 N   0  0  0  0  0  0  0  0  0  0  0  0
   -0.1198    2.3558   -0.6383 N   0  0  0  0  0  0  0  0  0  0  0  0
   -2.3421   -7.3464    0.5881 N   0  0  0  0  0  0  0  0  0  0  0  0
   -3.3872    4.9502    0.4037 N   0  0  0  0  0  0  0  0  0  0  0  0
   -4.6050    4.4152    0.6959 N   0  0  0  0  0  0  0  0  0  0  0  0
   -3.4785   -4.1107   -0.0056 C   0  0  0  0  0  0  0  0  0  0  0  0
   -4.6080   -3.1480   -0.3847 C   0  0  0  0  0  0  0  0  0  0  0  0
   -2.1313   -3.4970   -0.4001 C   0  0  0  0  0  0  0  0  0  0  0  0
   -4.4074   -1.7684    0.2423 C   0  0  0  0  0  0  0  0  0  0  0  0
   -1.9380   -2.1197    0.2324 C   0  0  0  0  0  0  0  0  0  0  0  0
   -3.6741   -5.4693   -0.6741 C   0  0  0  0  0  0  0  0  0  0  0  0
    7.6422   -0.9200    0.3373 C   0  0  0  0  0  0  0  0  0  0  0  0
    6.7023   -0.7248    1.5221 C   0  0  0  0  0  0  0  0  0  0  0  0
    6.8365   -1.2133   -0.9243 C   0  0  0  0  0  0  0  0  0  0  0  0
    5.6750    0.3692    1.2459 C   0  0  0  0  0  0  0  0  0  0  0  0
    5.8044   -0.1226   -1.1993 C   0  0  0  0  0  0  0  0  0  0  0  0
   -2.8539    0.1379   -0.0480 C   0  0  0  0  0  0  0  0  0  0  0  0
    3.6949    0.6690   -0.1709 C   0  0  0  0  0  0  0  0  0  0  0  0
   -2.9290   -6.5137    0.0329 C   0  0  0  0  0  0  0  0  0  0  0  0
    3.4469    1.5528   -1.2213 C   0  0  0  0  0  0  0  0  0  0  0  0
    2.6751    0.3464    0.7244 C   0  0  0  0  0  0  0  0  0  0  0  0
   -1.4148    1.8903   -0.3223 C   0  0  0  0  0  0  0  0  0  0  0  0
    1.1598    1.7915   -0.4806 C   0  0  0  0  0  0  0  0  0  0  0  0
   -3.6385    2.2247    0.2965 C   0  0  0  0  0  0  0  0  0  0  0  0
   -2.4172    2.7783    0.0039 C   0  0  0  0  0  0  0  0  0  0  0  0
    2.1795    2.1141   -1.3762 C   0  0  0  0  0  0  0  0  0  0  0  0
    1.4076    0.9077    0.5697 C   0  0  0  0  0  0  0  0  0  0  0  0
   -2.2571    4.2333    0.0544 C   0  0  0  0  0  0  0  0  0  0  0  0
   -4.7244    3.1264    0.6452 C   0  0  0  0  0  0  0  0  0  0  0  0
   -3.4991   -4.2351    1.0868 H   0  0  0  0  0  0  0  0  0  0  0  0
   -5.5752   -3.5517   -0.0622 H   0  0  0  0  0  0  0  0  0  0  0  0
   -4.6525   -3.0449   -1.4771 H   0  0  0  0  0  0  0  0  0  0  0  0
   -2.0724   -3.4002   -1.4923 H   0  0  0  0  0  0  0  0  0  0  0  0
   -1.3057   -4.1492   -0.0921 H   0  0  0  0  0  0  0  0  0  0  0  0
   -4.5286   -1.8235    1.3312 H   0  0  0  0  0  0  0  0  0  0  0  0
   -5.1998   -1.1188   -0.1488 H   0  0  0  0  0  0  0  0  0  0  0  0
   -0.9893   -1.7238   -0.1481 H   0  0  0  0  0  0  0  0  0  0  0  0
   -1.8384   -2.2124    1.3211 H   0  0  0  0  0  0  0  0  0  0  0  0
   -3.3777   -5.4356   -1.7289 H   0  0  0  0  0  0  0  0  0  0  0  0
   -4.7363   -5.7430   -0.6568 H   0  0  0  0  0  0  0  0  0  0  0  0
    8.2566   -0.0230    0.1971 H   0  0  0  0  0  0  0  0  0  0  0  0
    7.2805   -0.4815    2.4215 H   0  0  0  0  0  0  0  0  0  0  0  0
    6.1893   -1.6703    1.7435 H   0  0  0  0  0  0  0  0  0  0  0  0
    6.3332   -2.1837   -0.8182 H   0  0  0  0  0  0  0  0  0  0  0  0
    7.5095   -1.3198   -1.7834 H   0  0  0  0  0  0  0  0  0  0  0  0
    4.9896    0.4151    2.0999 H   0  0  0  0  0  0  0  0  0  0  0  0
    6.1730    1.3449    1.1819 H   0  0  0  0  0  0  0  0  0  0  0  0
    6.3163    0.8066   -1.4793 H   0  0  0  0  0  0  0  0  0  0  0  0
    5.1954   -0.4452   -2.0529 H   0  0  0  0  0  0  0  0  0  0  0  0
    9.0960   -2.1234   -0.1523 H   0  0  0  0  0  0  0  0  0  0  0  0
    4.2209    1.8383   -1.9280 H   0  0  0  0  0  0  0  0  0  0  0  0
    2.8445   -0.3498    1.5418 H   0  0  0  0  0  0  0  0  0  0  0  0
    1.9998    2.8032   -2.1975 H   0  0  0  0  0  0  0  0  0  0  0  0
    0.6326    0.6477    1.2857 H   0  0  0  0  0  0  0  0  0  0  0  0
   -0.1294    3.1839   -1.2276 H   0  0  0  0  0  0  0  0  0  0  0  0
   -5.7042    2.6784    0.8790 H   0  0  0  0  0  0  0  0  0  0  0  0
   -3.3524    5.9631    0.4590 H   0  0  0  0  0  0  0  0  0  0  0  0
  1 17  1  0  0  0  0
  1 55  1  0  0  0  0
  2 33  2  0  0  0  0
  3 14  1  0  0  0  0
  3 15  1  0  0  0  0
  3 22  1  0  0  0  0
  4 20  1  0  0  0  0
  4 21  1  0  0  0  0
  4 23  1  0  0  0  0
  5 22  1  0  0  0  0
  5 27  2  0  0  0  0
  6 22  2  0  0  0  0
  6 29  1  0  0  0  0
  7 27  1  0  0  0  0
  7 28  1  0  0  0  0
  7 60  1  0  0  0  0
  8 24  3  0  0  0  0
  9 10  1  0  0  0  0
  9 33  1  0  0  0  0
  9 62  1  0  0  0  0
 10 34  2  0  0  0  0
 11 12  1  0  0  0  0
 11 13  1  0  0  0  0
 11 16  1  0  0  0  0
 11 35  1  0  0  0  0
 12 14  1  0  0  0  0
 12 36  1  0  0  0  0
 12 37  1  0  0  0  0
 13 15  1  0  0  0  0
 13 38  1  0  0  0  0
 13 39  1  0  0  0  0
 14 40  1  0  0  0  0
 14 41  1  0  0  0  0
 15 42  1  0  0  0  0
 15 43  1  0  0  0  0
 16 24  1  0  0  0  0
 16 44  1  0  0  0  0
 16 45  1  0  0  0  0
 17 18  1  0  0  0  0
 17 19  1  0  0  0  0
 17 46  1  0  0  0  0
 18 20  1  0  0  0  0
 18 47  1  0  0  0  0
 18 48  1  0  0  0  0
 19 21  1  0  0  0  0
 19 49  1  0  0  0  0
 19 50  1  0  0  0  0
 20 51  1  0  0  0  0
 20 52  1  0  0  0  0
 21 53  1  0  0  0  0
 21 54  1  0  0  0  0
 23 25  2  0  0  0  0
 23 26  1  0  0  0  0
 25 31  1  0  0  0  0
 25 56  1  0  0  0  0
 26 32  2  0  0  0  0
 26 57  1  0  0  0  0
 27 30  1  0  0  0  0
 28 31  2  0  0  0  0
 28 32  1  0  0  0  0
 29 30  2  0  0  0  0
 29 34  1  0  0  0  0
 30 33  1  0  0  0  0
 31 58  1  0  0  0  0
 32 59  1  0  0  0  0
 34 61  1  0  0  0  0
M  END
> <PUBCHEM_COMPOUND_CID>
71269142

> <PUBCHEM_CONFORMER_RMSD>
1

> <PUBCHEM_CONFORMER_DIVERSEORDER>
1
10
15
30
32
31
27
19
18
14
5
34
7
12
13
16
36
22
39
11
26
29
4
23
6
8
25
21
9
17
28
38
37
24
35
33
3
20
2

> <PUBCHEM_MMFF94_PARTIAL_CHARGES>
37
1 -0.68
10 -0.51
14 0.37
15 0.37
16 0.2
17 0.28
2 -0.57
20 0.37
21 0.37
22 0.72
23 0.1
24 0.36
25 -0.15
26 -0.15
27 0.41
28 0.1
29 0.4
3 -0.84
30 0.09
31 -0.15
32 -0.15
33 0.54
34 0.3
4 -0.84
5 -0.62
55 0.4
56 0.15
57 0.15
58 0.15
59 0.15
6 -0.62
60 0.4
61 0.06
62 0.37
7 -0.6
8 -0.56
9 -0.37

> <PUBCHEM_EFFECTIVE_ROTOR_COUNT>
7.4

> <PUBCHEM_PHARMACOPHORE_FEATURES>
14
1 1 acceptor
1 1 donor
1 10 acceptor
1 2 acceptor
1 4 cation
1 7 donor
1 8 acceptor
1 9 donor
4 3 5 6 22 cation
6 23 25 26 28 31 32 rings
6 3 11 12 13 14 15 rings
6 4 17 18 19 20 21 rings
6 5 6 22 27 29 30 rings
6 9 10 29 30 33 34 rings

> <PUBCHEM_HEAVY_ATOM_COUNT>
34

> <PUBCHEM_ATOM_DEF_STEREO_COUNT>
0

> <PUBCHEM_ATOM_UDEF_STEREO_COUNT>
0

> <PUBCHEM_BOND_DEF_STEREO_COUNT>
0

> <PUBCHEM_BOND_UDEF_STEREO_COUNT>
0

> <PUBCHEM_ISOTOPIC_ATOM_COUNT>
0

> <PUBCHEM_COMPONENT_COUNT>
1

> <PUBCHEM_CACTVS_TAUTO_COUNT>
14

> <PUBCHEM_CONFORMER_ID>
043F7B1600000001

> <PUBCHEM_MMFF94_ENERGY>
121.9569

> <PUBCHEM_FEATURE_SELFOVERLAP>
71.08

> <PUBCHEM_SHAPE_FINGERPRINT>
10050765 1 18411139178028198332
10290309 65 17760367695278457165
10319926 262 18343011169627862520
10411042 1 18195245740433845799
10622 236 18190176978559833638
10940486 97 18334019363166762348
11014199 57 18194403518062164573
11204353 107 16320627029431359534
11297750 10 12171335905980987693
11445158 3 14708367684526095492
117089 54 17976263757361552010
11763715 3 17831040265916868085
11801155 225 18118960292370818442
11963148 33 18188763952280761634
12788726 201 18263659522582402701
13540713 5 18187942715161486876
13782708 43 17917710253581798550
14844126 61 18408325488732450865
14856354 85 18341614781238939156
14866123 147 18411705400608717779
15230672 131 18122346775245984414
15250474 111 18333730217646608900
15320294 125 18188213104394290629
15348495 7 18201148889630784560
15400415 2 18122908616776115964
15439362 3 17689153405933413109
15467298 65 18260259751516376770
15484559 13 14141108461889740700
15538507 19 18265328607473214794
15803439 3 17536275230215622325
15927050 60 18196652895878610303
16992752 21 18122636204385843044
19246450 95 18269015171371559947
19301676 85 18194957677009725087
19301679 30 18339369689531355367
19311894 1 18265897045914792515
20771845 38 18195813968833535497
20775438 99 16536779998460418019
21133410 171 17544420575115654506
23516275 137 17758135708786829826
23522609 53 17752233646618453036
23523787 8 17465612955008913695
23569914 152 17838587279914614759
32027 91 17979629367086069839
3383291 50 18411421679216600201
3504750 166 18410853265415717302
3610482 184 17896345587445058732
397830 11 18201426013995268896
4017518 198 18192710042769893813
4073 2 18341891854179599752
4144715 1 18272650143670096384
484985 159 18335693949529683303
50080093 196 17750494214458891642
508706 21 18271817812555012622
6009941 240 18059008377119557224
6058803 2 18116732882937461316
613672 6 17837466898327621903
6201320 77 16664607962623797427
6441014 3 18194681707521756450
6691757 9 18270401581834406001
6700243 42 17768851793443852276
68570916 9 18335420176215746260
7970288 3 18122062271520823175
9896288 288 18337680711507024417
9981440 41 18121791534716850401

> <PUBCHEM_SHAPE_MULTIPOLES>
648.12
17.04
9.37
1.03
40.98
11.05
0.02
11.55
-2.62
-22.19
-0.6
1.43
-0.05
-1.86

> <PUBCHEM_SHAPE_SELFOVERLAP>
1399.869

> <PUBCHEM_SHAPE_VOLUME>
348.2

> <PUBCHEM_COORDINATE_TYPE>
2
5
10

$$$$
156414
  -OEChem-11282412143D

 59 62  0     0  0  0  0  0  0999 V2000
   -6.7544   -1.2959   -3.3027 Cl  0  0  0  0  0  0  0  0  0  0  0  0
   -8.4732    0.8311   -2.1579 F   0  0  0  0  0  0  0  0  0  0  0  0
    9.1082    0.3747   -2.1040 O   0  0  0  0  0  0  0  0  0  0  0  0
    2.5473   -0.6562    1.5485 O   0  0  0  0  0  0  0  0  0  0  0  0
   -0.7345    3.1747    0.7815 O   0  0  0  0  0  0  0  0  0  0  0  0
    6.8730   -0.6008   -0.6363 N   0  0  0  0  0  0  0  0  0  0  0  0
    1.0565    1.6935    1.1515 N   0  0  0  0  0  0  0  0  0  0  0  0
   -3.7459    0.0607    0.6150 N   0  0  0  0  0  0  0  0  0  0  0  0
   -1.4035   -3.2984    1.2132 N   0  0  0  0  0  0  0  0  0  0  0  0
   -3.5509   -2.2737    0.8316 N   0  0  0  0  0  0  0  0  0  0  0  0
    5.6017   -1.3142   -0.5336 C   0  0  0  0  0  0  0  0  0  0  0  0
    6.7541    0.5495   -1.5430 C   0  0  0  0  0  0  0  0  0  0  0  0
    7.9395   -1.4991   -1.0999 C   0  0  0  0  0  0  0  0  0  0  0  0
    4.6798   -0.6129    0.4588 C   0  0  0  0  0  0  0  0  0  0  0  0
    8.0954    1.2703   -1.6441 C   0  0  0  0  0  0  0  0  0  0  0  0
    9.2527   -0.7299   -1.2103 C   0  0  0  0  0  0  0  0  0  0  0  0
    3.3533   -1.3466    0.6037 C   0  0  0  0  0  0  0  0  0  0  0  0
    1.1901   -0.7169    1.3653 C   0  0  0  0  0  0  0  0  0  0  0  0
    0.4430    0.4390    1.1679 C   0  0  0  0  0  0  0  0  0  0  0  0
   -1.5589   -0.9145    0.9988 C   0  0  0  0  0  0  0  0  0  0  0  0
    0.5602   -1.9650    1.3786 C   0  0  0  0  0  0  0  0  0  0  0  0
   -0.8151   -2.0893    1.1974 C   0  0  0  0  0  0  0  0  0  0  0  0
   -0.9329    0.3440    0.9841 C   0  0  0  0  0  0  0  0  0  0  0  0
   -2.9298   -1.0791    0.8213 C   0  0  0  0  0  0  0  0  0  0  0  0
   -4.9438    0.2529   -0.0914 C   0  0  0  0  0  0  0  0  0  0  0  0
   -2.7392   -3.3249    1.0298 C   0  0  0  0  0  0  0  0  0  0  0  0
    0.4549    2.9450    0.9662 C   0  0  0  0  0  0  0  0  0  0  0  0
   -5.2238   -0.5245   -1.2152 C   0  0  0  0  0  0  0  0  0  0  0  0
   -5.8542    1.2217    0.3309 C   0  0  0  0  0  0  0  0  0  0  0  0
   -6.4142   -0.3333   -1.9167 C   0  0  0  0  0  0  0  0  0  0  0  0
   -7.0445    1.4131   -0.3708 C   0  0  0  0  0  0  0  0  0  0  0  0
    1.4572    4.0487    1.0161 C   0  0  0  0  0  0  0  0  0  0  0  0
   -7.3246    0.6356   -1.4944 C   0  0  0  0  0  0  0  0  0  0  0  0
    1.0765    5.3205    0.8599 C   0  0  0  0  0  0  0  0  0  0  0  0
    5.1181   -1.4310   -1.5119 H   0  0  0  0  0  0  0  0  0  0  0  0
    5.7737   -2.3287   -0.1498 H   0  0  0  0  0  0  0  0  0  0  0  0
    6.0080    1.2649   -1.1828 H   0  0  0  0  0  0  0  0  0  0  0  0
    6.4485    0.2164   -2.5436 H   0  0  0  0  0  0  0  0  0  0  0  0
    7.6793   -1.9232   -2.0786 H   0  0  0  0  0  0  0  0  0  0  0  0
    8.0763   -2.3272   -0.3950 H   0  0  0  0  0  0  0  0  0  0  0  0
    4.4700    0.4188    0.1532 H   0  0  0  0  0  0  0  0  0  0  0  0
    5.1611   -0.5401    1.4429 H   0  0  0  0  0  0  0  0  0  0  0  0
    8.3970    1.7012   -0.6815 H   0  0  0  0  0  0  0  0  0  0  0  0
    8.0245    2.0902   -2.3660 H   0  0  0  0  0  0  0  0  0  0  0  0
   10.0342   -1.3826   -1.6121 H   0  0  0  0  0  0  0  0  0  0  0  0
    9.5933   -0.3677   -0.2325 H   0  0  0  0  0  0  0  0  0  0  0  0
    2.8557   -1.3988   -0.3736 H   0  0  0  0  0  0  0  0  0  0  0  0
    3.5231   -2.3674    0.9646 H   0  0  0  0  0  0  0  0  0  0  0  0
    1.1526   -2.8638    1.5430 H   0  0  0  0  0  0  0  0  0  0  0  0
   -1.5501    1.2115    0.8143 H   0  0  0  0  0  0  0  0  0  0  0  0
    2.0646    1.6736    1.2927 H   0  0  0  0  0  0  0  0  0  0  0  0
   -3.5411    0.8143    1.2657 H   0  0  0  0  0  0  0  0  0  0  0  0
   -3.2071   -4.3017    1.0432 H   0  0  0  0  0  0  0  0  0  0  0  0
   -4.5144   -1.2727   -1.5612 H   0  0  0  0  0  0  0  0  0  0  0  0
   -5.6493    1.8341    1.2054 H   0  0  0  0  0  0  0  0  0  0  0  0
   -7.7535    2.1671   -0.0421 H   0  0  0  0  0  0  0  0  0  0  0  0
    2.5018    3.8083    1.1807 H   0  0  0  0  0  0  0  0  0  0  0  0
    1.8141    6.1154    0.8979 H   0  0  0  0  0  0  0  0  0  0  0  0
    0.0439    5.6059    0.6932 H   0  0  0  0  0  0  0  0  0  0  0  0
  1 30  1  0  0  0  0
  2 33  1  0  0  0  0
  3 15  1  0  0  0  0
  3 16  1  0  0  0  0
  4 17  1  0  0  0  0
  4 18  1  0  0  0  0
  5 27  2  0  0  0  0
  6 11  1  0  0  0  0
  6 12  1  0  0  0  0
  6 13  1  0  0  0  0
  7 19  1  0  0  0  0
  7 27  1  0  0  0  0
  7 51  1  0  0  0  0
  8 24  1  0  0  0  0
  8 25  1  0  0  0  0
  8 52  1  0  0  0  0
  9 22  1  0  0  0  0
  9 26  2  0  0  0  0
 10 24  2  0  0  0  0
 10 26  1  0  0  0  0
 11 14  1  0  0  0  0
 11 35  1  0  0  0  0
 11 36  1  0  0  0  0
 12 15  1  0  0  0  0
 12 37  1  0  0  0  0
 12 38  1  0  0  0  0
 13 16  1  0  0  0  0
 13 39  1  0  0  0  0
 13 40  1  0  0  0  0
 14 17  1  0  0  0  0
 14 41  1  0  0  0  0
 14 42  1  0  0  0  0
 15 43  1  0  0  0  0
 15 44  1  0  0  0  0
 16 45  1  0  0  0  0
 16 46  1  0  0  0  0
 17 47  1  0  0  0  0
 17 48  1  0  0  0  0
 18 19  2  0  0  0  0
 18 21  1  0  0  0  0
 19 23  1  0  0  0  0
 20 22  1  0  0  0  0
 20 23  2  0  0  0  0
 20 24  1  0  0  0  0
 21 22  2  0  0  0  0
 21 49  1  0  0  0  0
 23 50  1  0  0  0  0
 25 28  2  0  0  0  0
 25 29  1  0  0  0  0
 26 53  1  0  0  0  0
 27 32  1  0  0  0  0
 28 30  1  0  0  0  0
 28 54  1  0  0  0  0
 29 31  2  0  0  0  0
 29 55  1  0  0  0  0
 30 33  2  0  0  0  0
 31 33  1  0  0  0  0
 31 56  1  0  0  0  0
 32 34  2  0  0  0  0
 32 57  1  0  0  0  0
 34 58  1  0  0  0  0
 34 59  1  0  0  0  0
M  END
> <PUBCHEM_COMPOUND_CID>
156414

> <PUBCHEM_CONFORMER_RMSD>
1.2

> <PUBCHEM_CONFORMER_DIVERSEORDER>
2
20
52
50
8
16
38
40
35
23
31
25
43
32
19
49
17
44
46
10
27
45
22
21
39
41
29
1
12
37
14
18
42
9
3
51
48
36
28
6
47
15
11
26
13
34
5
24
4
30
7
33

> <PUBCHEM_MMFF94_PARTIAL_CHARGES>
43
1 -0.18
10 -0.62
11 0.27
12 0.27
13 0.27
15 0.28
16 0.28
17 0.28
18 0.08
19 0.12
2 -0.19
21 -0.15
22 0.31
23 -0.15
24 0.41
25 0.1
26 0.47
27 0.62
28 -0.15
29 -0.15
3 -0.56
30 0.18
31 -0.15
32 -0.14
33 0.19
34 -0.3
4 -0.36
49 0.15
5 -0.57
50 0.15
51 0.37
52 0.4
53 0.15
54 0.15
55 0.15
56 0.15
57 0.15
58 0.15
59 0.15
6 -0.81
7 -0.55
8 -0.6
9 -0.62

> <PUBCHEM_EFFECTIVE_ROTOR_COUNT>
11.2

> <PUBCHEM_PHARMACOPHORE_FEATURES>
13
1 3 acceptor
1 34 hydrophobe
1 4 acceptor
1 5 acceptor
1 6 cation
1 7 donor
1 8 donor
3 8 10 24 cation
3 9 10 26 cation
6 18 19 20 21 22 23 rings
6 25 28 29 30 31 33 rings
6 3 6 12 13 15 16 rings
6 9 10 20 22 24 26 rings

> <PUBCHEM_HEAVY_ATOM_COUNT>
34

> <PUBCHEM_ATOM_DEF_STEREO_COUNT>
0

> <PUBCHEM_ATOM_UDEF_STEREO_COUNT>
0

> <PUBCHEM_BOND_DEF_STEREO_COUNT>
0

> <PUBCHEM_BOND_UDEF_STEREO_COUNT>
0

> <PUBCHEM_ISOTOPIC_ATOM_COUNT>
0

> <PUBCHEM_COMPONENT_COUNT>
1

> <PUBCHEM_CACTVS_TAUTO_COUNT>
6

> <PUBCHEM_CONFORMER_ID>
000262FE00000002

> <PUBCHEM_MMFF94_ENERGY>
108.6302

> <PUBCHEM_FEATURE_SELFOVERLAP>
66.143

> <PUBCHEM_SHAPE_FINGERPRINT>
10483366 6 18410015420666029720
10816530 90 18187640341074146368
11135609 99 15123499346016701556
11297750 10 17537744439353549906
11456790 92 12179850502756382822
12788726 201 18335144133918491586
13383668 90 17561081380832721277
13540713 4 18120371214447705299
13690498 29 18191593162295502963
13911987 19 18334295336042108979
14068700 675 17489587848496261504
15198563 99 18340495444016075484
15510800 12 14692575454661202206
1577012 14 17095239237820320930
16992727 255 18113624469254896148
16994733 274 15574711409033157092
2026 5 15051730876624515869
20642791 239 18261396675896425400
21756936 100 15357699708306399371
21814621 53 15358262567564042761
21987483 16 10518542321914461175
22224240 67 10809351026931459401
23389318 12 15913329122548460842
23559900 14 18269557298632387912
23576562 1 18268141136187477687
4353968 344 18198914618000458622
4561138 5 17603861175584421048
4616759 239 11530487701578364421
5104073 3 9150635503019179599
563151 248 10375861949537543180
57527452 28 16128654145898468695
5776283 40 18260545632680418689
9689198 14 15864072048525510230

> <PUBCHEM_SHAPE_MULTIPOLES>
651.79
25.82
4.16
2.26
30.2
5.73
-1.63
-2.9
-28.64
0.36
2.41
-1.72
-0.67
0.22

> <PUBCHEM_SHAPE_SELFOVERLAP>
1387.264

> <PUBCHEM_SHAPE_VOLUME>
362.8

> <PUBCHEM_COORDINATE_TYPE>
2
5
10

$$$$
16063245
  -OEChem-11282412143D

 60 64  0     0  0  0  0  0  0999 V2000
    5.9733   -2.1173   -1.5204 F   0  0  0  0  0  0  0  0  0  0  0  0
    4.8143   -3.8484   -0.9173 F   0  0  0  0  0  0  0  0  0  0  0  0
    4.2546   -2.7363   -2.7001 F   0  0  0  0  0  0  0  0  0  0  0  0
    0.1091   -3.6010   -0.6474 O   0  0  0  0  0  0  0  0  0  0  0  0
    3.9673    1.4514    1.2777 N   0  0  0  0  0  0  0  0  0  0  0  0
    0.2933   -1.5823    0.5342 N   0  0  0  0  0  0  0  0  0  0  0  0
   -4.6009   -0.5077    1.2172 N   0  0  0  0  0  0  0  0  0  0  0  0
    5.4160    3.0559    1.8205 N   0  0  0  0  0  0  0  0  0  0  0  0
   -3.4751    1.0182   -0.1650 N   0  0  0  0  0  0  0  0  0  0  0  0
   -5.3493    1.7161    1.1795 N   0  0  0  0  0  0  0  0  0  0  0  0
   -2.5367    3.4838   -2.4774 N   0  0  0  0  0  0  0  0  0  0  0  0
   -0.1547    2.0038   -2.4325 N   0  0  0  0  0  0  0  0  0  0  0  0
    3.4693    0.2896    0.7168 C   0  0  0  0  0  0  0  0  0  0  0  0
    1.6507   -1.2267    0.3395 C   0  0  0  0  0  0  0  0  0  0  0  0
    3.8013   -1.7042   -0.6066 C   0  0  0  0  0  0  0  0  0  0  0  0
    2.1327   -0.0603    0.9085 C   0  0  0  0  0  0  0  0  0  0  0  0
    4.3036   -0.5323   -0.0408 C   0  0  0  0  0  0  0  0  0  0  0  0
    2.4646   -2.0540   -0.4151 C   0  0  0  0  0  0  0  0  0  0  0  0
   -1.8021   -2.7867    0.3992 C   0  0  0  0  0  0  0  0  0  0  0  0
   -3.8810   -1.6982    0.9745 C   0  0  0  0  0  0  0  0  0  0  0  0
   -4.5073   -2.9414    1.0636 C   0  0  0  0  0  0  0  0  0  0  0  0
   -2.5284   -1.6209    0.6424 C   0  0  0  0  0  0  0  0  0  0  0  0
   -0.3918   -2.7066    0.0531 C   0  0  0  0  0  0  0  0  0  0  0  0
    3.2724    2.3536    2.0422 C   0  0  0  0  0  0  0  0  0  0  0  0
   -2.4283   -4.0299    0.4884 C   0  0  0  0  0  0  0  0  0  0  0  0
   -3.7810   -4.1072    0.8208 C   0  0  0  0  0  0  0  0  0  0  0  0
    4.6933   -2.5830   -1.4168 C   0  0  0  0  0  0  0  0  0  0  0  0
    5.2522    1.9222    1.1755 C   0  0  0  0  0  0  0  0  0  0  0  0
    4.1858    3.3302    2.3634 C   0  0  0  0  0  0  0  0  0  0  0  0
   -5.9545   -3.0539    1.4177 C   0  0  0  0  0  0  0  0  0  0  0  0
    3.9761    4.5428    3.1688 C   0  0  0  0  0  0  0  0  0  0  0  0
   -4.4691    0.8025    0.7210 C   0  0  0  0  0  0  0  0  0  0  0  0
   -3.3774    2.2847   -0.6199 C   0  0  0  0  0  0  0  0  0  0  0  0
   -4.2170    3.3071   -0.2276 C   0  0  0  0  0  0  0  0  0  0  0  0
   -5.1941    2.9611    0.6833 C   0  0  0  0  0  0  0  0  0  0  0  0
   -2.3144    2.5148   -1.5686 C   0  0  0  0  0  0  0  0  0  0  0  0
   -1.1460    1.7875   -1.5453 C   0  0  0  0  0  0  0  0  0  0  0  0
   -1.5453    3.7002   -3.3645 C   0  0  0  0  0  0  0  0  0  0  0  0
   -0.3755    2.9731   -3.3425 C   0  0  0  0  0  0  0  0  0  0  0  0
    1.4455    0.5469    1.4880 H   0  0  0  0  0  0  0  0  0  0  0  0
    5.3476   -0.2952   -0.2128 H   0  0  0  0  0  0  0  0  0  0  0  0
    2.1421   -2.9733   -0.8809 H   0  0  0  0  0  0  0  0  0  0  0  0
   -0.2050   -0.9387    1.1422 H   0  0  0  0  0  0  0  0  0  0  0  0
   -2.0418   -0.6568    0.5900 H   0  0  0  0  0  0  0  0  0  0  0  0
    2.2281    2.2648    2.3045 H   0  0  0  0  0  0  0  0  0  0  0  0
   -1.8795   -4.9506    0.3083 H   0  0  0  0  0  0  0  0  0  0  0  0
   -4.2527   -5.0840    0.8879 H   0  0  0  0  0  0  0  0  0  0  0  0
    6.0478    1.4316    0.6326 H   0  0  0  0  0  0  0  0  0  0  0  0
   -5.4280   -0.6170    1.7946 H   0  0  0  0  0  0  0  0  0  0  0  0
   -6.5680   -2.4560    0.7355 H   0  0  0  0  0  0  0  0  0  0  0  0
   -6.3110   -4.0874    1.3446 H   0  0  0  0  0  0  0  0  0  0  0  0
   -6.1234   -2.7212    2.4471 H   0  0  0  0  0  0  0  0  0  0  0  0
    4.1610    5.4374    2.5661 H   0  0  0  0  0  0  0  0  0  0  0  0
    4.6603    4.5569    4.0229 H   0  0  0  0  0  0  0  0  0  0  0  0
    2.9530    4.5984    3.5537 H   0  0  0  0  0  0  0  0  0  0  0  0
   -4.1338    4.3254   -0.5868 H   0  0  0  0  0  0  0  0  0  0  0  0
   -5.8996    3.6980    1.0520 H   0  0  0  0  0  0  0  0  0  0  0  0
   -0.9394    1.0125   -0.8174 H   0  0  0  0  0  0  0  0  0  0  0  0
   -1.7219    4.4789   -4.0959 H   0  0  0  0  0  0  0  0  0  0  0  0
    0.4207    3.1476   -4.0557 H   0  0  0  0  0  0  0  0  0  0  0  0
  1 27  1  0  0  0  0
  2 27  1  0  0  0  0
  3 27  1  0  0  0  0
  4 23  2  0  0  0  0
  5 13  1  0  0  0  0
  5 24  1  0  0  0  0
  5 28  1  0  0  0  0
  6 14  1  0  0  0  0
  6 23  1  0  0  0  0
  6 43  1  0  0  0  0
  7 20  1  0  0  0  0
  7 32  1  0  0  0  0
  7 49  1  0  0  0  0
  8 28  2  0  0  0  0
  8 29  1  0  0  0  0
  9 32  1  0  0  0  0
  9 33  2  0  0  0  0
 10 32  2  0  0  0  0
 10 35  1  0  0  0  0
 11 36  2  0  0  0  0
 11 38  1  0  0  0  0
 12 37  2  0  0  0  0
 12 39  1  0  0  0  0
 13 16  1  0  0  0  0
 13 17  2  0  0  0  0
 14 16  2  0  0  0  0
 14 18  1  0  0  0  0
 15 17  1  0  0  0  0
 15 18  2  0  0  0  0
 15 27  1  0  0  0  0
 16 40  1  0  0  0  0
 17 41  1  0  0  0  0
 18 42  1  0  0  0  0
 19 22  2  0  0  0  0
 19 23  1  0  0  0  0
 19 25  1  0  0  0  0
 20 21  2  0  0  0  0
 20 22  1  0  0  0  0
 21 26  1  0  0  0  0
 21 30  1  0  0  0  0
 22 44  1  0  0  0  0
 24 29  2  0  0  0  0
 24 45  1  0  0  0  0
 25 26  2  0  0  0  0
 25 46  1  0  0  0  0
 26 47  1  0  0  0  0
 28 48  1  0  0  0  0
 29 31  1  0  0  0  0
 30 50  1  0  0  0  0
 30 51  1  0  0  0  0
 30 52  1  0  0  0  0
 31 53  1  0  0  0  0
 31 54  1  0  0  0  0
 31 55  1  0  0  0  0
 33 34  1  0  0  0  0
 33 36  1  0  0  0  0
 34 35  2  0  0  0  0
 34 56  1  0  0  0  0
 35 57  1  0  0  0  0
 36 37  1  0  0  0  0
 37 58  1  0  0  0  0
 38 39  2  0  0  0  0
 38 59  1  0  0  0  0
 39 60  1  0  0  0  0
M  END
> <PUBCHEM_COMPOUND_CID>
16063245

> <PUBCHEM_CONFORMER_RMSD>
1.2

> <PUBCHEM_CONFORMER_DIVERSEORDER>
3
278
283
133
425
533
119
495
221
81
274
301
31
84
368
351
194
478
36
409
437
32
271
124
277
272
135
149
138
214
357
460
508
343
490
130
520
457
326
448
65
129
309
188
51
273
44
201
514
284
519
45
385
39
452
275
22
7
365
217
162
35
509
504
12
307
302
174
117
60
63
56
276
95
493
399
466
303
359
97
455
323
252
494
315
525
116
226
404
23
262
10
236
177
152
4
258
34
377
216
447
2
387
254
242
19
59
522
62
510
200
182
1
489
445
167
475
26
21
418
310
526
14
85
52
75
454
210
28
134
261
497
128
66
202
285
6
492
465
139
103
191
286
90
107
15
5
42
110
68
157
64
8
443
53
57
55
98
76
241
186
197
16
211
73
13

> <PUBCHEM_MMFF94_PARTIAL_CHARGES>
54
1 -0.34
10 -0.62
11 -0.62
12 -0.62
13 -0.02
14 0.12
15 -0.14
16 -0.15
17 -0.15
18 -0.15
19 0.09
2 -0.34
20 0.1
21 -0.14
22 -0.15
23 0.54
24 -0.3
25 -0.15
26 -0.15
27 1.16
28 0.04
29 0.05
3 -0.34
30 0.14
31 0.18
32 0.72
33 0.31
34 -0.15
35 0.16
36 0.31
37 0.16
38 0.16
39 0.16
4 -0.57
40 0.15
41 0.15
42 0.15
43 0.37
44 0.15
45 0.15
46 0.15
47 0.15
48 0.15
49 0.4
5 0.33
56 0.15
57 0.15
58 0.15
59 0.15
6 -0.55
60 0.15
7 -0.6
8 -0.57
9 -0.62

> <PUBCHEM_EFFECTIVE_ROTOR_COUNT>
8

> <PUBCHEM_PHARMACOPHORE_FEATURES>
13
1 11 acceptor
1 12 acceptor
1 4 acceptor
1 6 donor
1 7 donor
1 9 acceptor
3 5 8 28 cation
4 7 9 10 32 cation
5 5 8 24 28 29 rings
6 11 12 36 37 38 39 rings
6 13 14 15 16 17 18 rings
6 19 20 21 22 25 26 rings
6 9 10 32 33 34 35 rings

> <PUBCHEM_HEAVY_ATOM_COUNT>
39

> <PUBCHEM_ATOM_DEF_STEREO_COUNT>
0

> <PUBCHEM_ATOM_UDEF_STEREO_COUNT>
0

> <PUBCHEM_BOND_DEF_STEREO_COUNT>
0

> <PUBCHEM_BOND_UDEF_STEREO_COUNT>
0

> <PUBCHEM_ISOTOPIC_ATOM_COUNT>
0

> <PUBCHEM_COMPONENT_COUNT>
1

> <PUBCHEM_CACTVS_TAUTO_COUNT>
6

> <PUBCHEM_CONFORMER_ID>
00F51B0D00000003

> <PUBCHEM_MMFF94_ENERGY>
124.1447

> <PUBCHEM_FEATURE_SELFOVERLAP>
65.977

> <PUBCHEM_SHAPE_FINGERPRINT>
10256941 240 17244672625894619749
10369192 42 17984699185116043912
10842077 115 18123153936454248728
10864689 126 18047470015591850205
11028528 32 14520024009673165400
11513181 2 18130229379493528927
11578080 2 18411987970886504492
12728209 29 17901096430864384613
13165054 411 14236962854706900129
13561361 72 18333168353676504133
140371 6 17901670684918937203
14068700 686 18126004012348275570
14117953 113 18187654557953394791
14279260 333 17268914581081286550
15001296 14 17677917723471492460
15351339 4 16314728132426085293
15775530 1 18340190956620040238
15975801 100 17387981876320968540
16067690 210 17168444682820188444
19309040 13 17561081440335158721
21779490 1 18193831763547704157
22121540 332 18198915888698446068
25019877 29 17053028101566452190
25223398 141 17678737822228845486
469060 322 17313932134522458993
474144 1 17176029367758835373
50150288 127 16198156603826190500
508706 21 18262230023973960135
552612 73 18411704314071753668

> <PUBCHEM_SHAPE_MULTIPOLES>
735.06
13.87
7.24
2.87
4.59
0.27
-1.51
-0.4
6.99
-1.93
-1.24
2.54
3.96
8.53

> <PUBCHEM_SHAPE_SELFOVERLAP>
1631.732

> <PUBCHEM_SHAPE_VOLUME>
394.8

> <PUBCHEM_COORDINATE_TYPE>
2
5
10

$$$$
44603362
  -OEChem-11282412143D

 52 56  0     0  0  0  0  0  0999 V2000
   -5.5036   -1.5392   -0.0564 O   0  0  0  0  0  0  0  0  0  0  0  0
    5.9918    1.2224   -0.2393 O   0  0  0  0  0  0  0  0  0  0  0  0
   -4.8343    0.6542   -0.2523 N   0  0  0  0  0  0  0  0  0  0  0  0
    3.6440    1.4486   -0.2577 N   0  0  0  0  0  0  0  0  0  0  0  0
    1.9207   -1.5218   -0.0194 N   0  0  0  0  0  0  0  0  0  0  0  0
    1.8871   -0.1658   -0.1249 N   0  0  0  0  0  0  0  0  0  0  0  0
    4.0543   -0.8826   -0.0723 N   0  0  0  0  0  0  0  0  0  0  0  0
   -5.2572    2.6183    0.1319 C   0  0  0  0  0  0  0  0  0  0  0  0
   -6.0787    1.4000   -0.3049 C   0  0  0  0  0  0  0  0  0  0  0  0
   -3.9896    1.8334   -0.2279 C   0  0  0  0  0  0  0  0  0  0  0  0
    5.1186    3.3868   -0.4120 C   0  0  0  0  0  0  0  0  0  0  0  0
    4.4427    4.2683    0.5970 C   0  0  0  0  0  0  0  0  0  0  0  0
    5.9365    4.1253    0.6064 C   0  0  0  0  0  0  0  0  0  0  0  0
   -5.4805    3.8426   -0.7315 C   0  0  0  0  0  0  0  0  0  0  0  0
   -5.3818    2.9568    1.5987 C   0  0  0  0  0  0  0  0  0  0  0  0
   -4.6160   -0.6936   -0.1379 C   0  0  0  0  0  0  0  0  0  0  0  0
    4.9756    1.9015   -0.2935 C   0  0  0  0  0  0  0  0  0  0  0  0
   -3.2118   -1.1429   -0.0887 C   0  0  0  0  0  0  0  0  0  0  0  0
   -2.7420   -1.8412    1.0237 C   0  0  0  0  0  0  0  0  0  0  0  0
   -2.3532   -0.8667   -1.1526 C   0  0  0  0  0  0  0  0  0  0  0  0
    3.1790    0.1536   -0.1548 C   0  0  0  0  0  0  0  0  0  0  0  0
   -0.5549   -1.9876    0.0078 C   0  0  0  0  0  0  0  0  0  0  0  0
   -1.4136   -2.2636    1.0719 C   0  0  0  0  0  0  0  0  0  0  0  0
   -1.0247   -1.2890   -1.1043 C   0  0  0  0  0  0  0  0  0  0  0  0
    0.8487   -2.4338    0.0595 C   0  0  0  0  0  0  0  0  0  0  0  0
    3.2620   -1.9275    0.0156 C   0  0  0  0  0  0  0  0  0  0  0  0
    1.1317   -3.7487    0.1717 C   0  0  0  0  0  0  0  0  0  0  0  0
    3.5345   -3.3176    0.1350 C   0  0  0  0  0  0  0  0  0  0  0  0
    2.5147   -4.1900    0.2112 C   0  0  0  0  0  0  0  0  0  0  0  0
   -6.4993    1.4264   -1.3151 H   0  0  0  0  0  0  0  0  0  0  0  0
   -6.8359    1.0497    0.4021 H   0  0  0  0  0  0  0  0  0  0  0  0
   -3.2088    1.8100    0.5373 H   0  0  0  0  0  0  0  0  0  0  0  0
   -3.5460    2.0478   -1.2053 H   0  0  0  0  0  0  0  0  0  0  0  0
    5.1756    3.7520   -1.4324 H   0  0  0  0  0  0  0  0  0  0  0  0
    3.8946    3.8150    1.4138 H   0  0  0  0  0  0  0  0  0  0  0  0
    4.0279    5.2063    0.2484 H   0  0  0  0  0  0  0  0  0  0  0  0
    6.3819    3.5692    1.4222 H   0  0  0  0  0  0  0  0  0  0  0  0
    6.5256    4.9681    0.2658 H   0  0  0  0  0  0  0  0  0  0  0  0
   -5.3932    3.6100   -1.7990 H   0  0  0  0  0  0  0  0  0  0  0  0
   -6.4789    4.2635   -0.5693 H   0  0  0  0  0  0  0  0  0  0  0  0
   -4.7462    4.6240   -0.5062 H   0  0  0  0  0  0  0  0  0  0  0  0
   -6.3771    3.3518    1.8309 H   0  0  0  0  0  0  0  0  0  0  0  0
   -5.2225    2.0798    2.2368 H   0  0  0  0  0  0  0  0  0  0  0  0
   -4.6456    3.7125    1.8947 H   0  0  0  0  0  0  0  0  0  0  0  0
    2.9078    2.1476   -0.3174 H   0  0  0  0  0  0  0  0  0  0  0  0
   -3.4006   -2.0587    1.8606 H   0  0  0  0  0  0  0  0  0  0  0  0
   -2.7067   -0.3328   -2.0309 H   0  0  0  0  0  0  0  0  0  0  0  0
   -1.0651   -2.8008    1.9508 H   0  0  0  0  0  0  0  0  0  0  0  0
   -0.3731   -1.0721   -1.9473 H   0  0  0  0  0  0  0  0  0  0  0  0
    0.3634   -4.5131    0.2271 H   0  0  0  0  0  0  0  0  0  0  0  0
    4.5631   -3.6592    0.1645 H   0  0  0  0  0  0  0  0  0  0  0  0
    2.7017   -5.2545    0.3029 H   0  0  0  0  0  0  0  0  0  0  0  0
  1 16  2  0  0  0  0
  2 17  2  0  0  0  0
  3  9  1  0  0  0  0
  3 10  1  0  0  0  0
  3 16  1  0  0  0  0
  4 17  1  0  0  0  0
  4 21  1  0  0  0  0
  4 45  1  0  0  0  0
  5  6  1  0  0  0  0
  5 25  1  0  0  0  0
  5 26  1  0  0  0  0
  6 21  2  0  0  0  0
  7 21  1  0  0  0  0
  7 26  2  0  0  0  0
  8  9  1  0  0  0  0
  8 10  1  0  0  0  0
  8 14  1  0  0  0  0
  8 15  1  0  0  0  0
  9 30  1  0  0  0  0
  9 31  1  0  0  0  0
 10 32  1  0  0  0  0
 10 33  1  0  0  0  0
 11 12  1  0  0  0  0
 11 13  1  0  0  0  0
 11 17  1  0  0  0  0
 11 34  1  0  0  0  0
 12 13  1  0  0  0  0
 12 35  1  0  0  0  0
 12 36  1  0  0  0  0
 13 37  1  0  0  0  0
 13 38  1  0  0  0  0
 14 39  1  0  0  0  0
 14 40  1  0  0  0  0
 14 41  1  0  0  0  0
 15 42  1  0  0  0  0
 15 43  1  0  0  0  0
 15 44  1  0  0  0  0
 16 18  1  0  0  0  0
 18 19  2  0  0  0  0
 18 20  1  0  0  0  0
 19 23  1  0  0  0  0
 19 46  1  0  0  0  0
 20 24  2  0  0  0  0
 20 47  1  0  0  0  0
 22 23  2  0  0  0  0
 22 24  1  0  0  0  0
 22 25  1  0  0  0  0
 23 48  1  0  0  0  0
 24 49  1  0  0  0  0
 25 27  2  0  0  0  0
 26 28  1  0  0  0  0
 27 29  1  0  0  0  0
 27 50  1  0  0  0  0
 28 29  2  0  0  0  0
 28 51  1  0  0  0  0
 29 52  1  0  0  0  0
M  END
> <PUBCHEM_COMPOUND_CID>
44603362

> <PUBCHEM_CONFORMER_RMSD>
1

> <PUBCHEM_CONFORMER_DIVERSEORDER>
1
13
25
5
19
16
22
9
23
11
26
7
14
4
8
18
17
6
3
20
2
15
21
12
10
24

> <PUBCHEM_MMFF94_PARTIAL_CHARGES>
39
1 -0.57
10 0.22
11 -0.1
12 -0.2
13 -0.2
16 0.54
17 0.63
18 0.09
19 -0.15
2 -0.57
20 -0.15
21 0.58
22 0.03
23 -0.15
24 -0.15
25 -0.06
26 0.14
27 -0.15
28 -0.11
29 -0.15
3 -0.51
34 0.1
35 0.1
36 0.1
37 0.1
38 0.1
4 -0.49
45 0.37
46 0.15
47 0.15
48 0.15
49 0.15
5 0.6
50 0.15
51 0.15
52 0.15
6 -0.71
7 -0.57
9 0.22

> <PUBCHEM_EFFECTIVE_ROTOR_COUNT>
7.4

> <PUBCHEM_PHARMACOPHORE_FEATURES>
9
1 1 acceptor
1 2 acceptor
1 4 donor
3 5 7 26 cation
3 8 14 15 hydrophobe
4 3 8 9 10 rings
5 5 6 7 21 26 rings
6 18 19 20 22 23 24 rings
6 5 25 26 27 28 29 rings

> <PUBCHEM_HEAVY_ATOM_COUNT>
29

> <PUBCHEM_ATOM_DEF_STEREO_COUNT>
0

> <PUBCHEM_ATOM_UDEF_STEREO_COUNT>
0

> <PUBCHEM_BOND_DEF_STEREO_COUNT>
0

> <PUBCHEM_BOND_UDEF_STEREO_COUNT>
0

> <PUBCHEM_ISOTOPIC_ATOM_COUNT>
0

> <PUBCHEM_COMPONENT_COUNT>
1

> <PUBCHEM_CACTVS_TAUTO_COUNT>
3

> <PUBCHEM_CONFORMER_ID>
02A897E200000001

> <PUBCHEM_MMFF94_ENERGY>
81.7397

> <PUBCHEM_FEATURE_SELFOVERLAP>
45.794

> <PUBCHEM_SHAPE_FINGERPRINT>
10595046 47 18412258429204172271
11386260 185 17909258097013527063
12104220 4 16691352053897702449
12422481 6 17313657239662395748
12925494 130 18335421274888441509
13944108 23 18191876622036753588
14251764 75 18342464733411997153
14429114 114 18411697707837591489
14739800 52 18410575084768600311
14790565 3 18338237201561015772
14849402 71 18265053544365315930
15064981 113 17203066165945420148
15142526 21 18261110759992465691
15198563 99 17694523455478628518
15320467 1 18194119848410686245
15326921 28 17980186815228291208
16990350 14 18409449185411104572
17844677 252 18338805507571068971
19053607 189 18339347630637339496
19304671 126 17846512434508458948
19438510 23 18259983811933891344
20058555 10 18410011048463493533
20238998 120 18050847720420040322
21033648 29 18051969527016971200
21307412 95 9438587660169574027
21315764 268 18118401735993607165
21792938 324 17690250757276548826
22122407 14 18411708659755744171
23559900 14 18194119616704037339
23569914 152 8933610458672611273
245318 6 17678474175166164980
24893989 43 13731012472790779700
2748736 6 18339069488639437928
2838139 119 18340485668426994142
34797466 226 18131075896784922783
376196 1 18409449202385278242
393628 179 18055056925192142576
437795 171 18261947449460462997
5104073 3 18041000605307062243
550186 72 17905048406240901943
56638632 10 17983027922850854289
57724786 102 18340204081480518391
6058803 2 18269815597755449599
636775 72 17981602981952928456
7288768 16 18040994106651927203
9981440 41 18262523731044118043

> <PUBCHEM_SHAPE_MULTIPOLES>
560.16
16.32
6.55
0.94
4.93
3.31
-0.13
21.07
-0.3
-6.88
-1.09
0.77
0.21
0.19

> <PUBCHEM_SHAPE_SELFOVERLAP>
1225.497

> <PUBCHEM_SHAPE_VOLUME>
305.9

> <PUBCHEM_COORDINATE_TYPE>
2
5
10

$$$$
91754477
  -OEChem-11282412143D

 62 67  0     1  0  0  0  0  0999 V2000
    0.2329   -1.6499   -0.8080 O   0  0  0  0  0  0  0  0  0  0  0  0
   -4.5814   -0.8203   -0.4244 O   0  0  0  0  0  0  0  0  0  0  0  0
   -3.8609   -3.7627   -0.9946 O   0  0  0  0  0  0  0  0  0  0  0  0
    4.4553   -2.3101    0.8184 N   0  0  0  0  0  0  0  0  0  0  0  0
   -3.5546   -1.2976    0.5031 N   0  0  2  0  0  0  0  0  0  0  0  0
    2.9796    2.8375   -0.5706 N   0  0  0  0  0  0  0  0  0  0  0  0
   -1.6273    2.5993    0.2520 N   0  0  0  0  0  0  0  0  0  0  0  0
   -2.8462    3.1653    0.2560 N   0  0  0  0  0  0  0  0  0  0  0  0
    0.6795    2.6984   -0.1530 N   0  0  0  0  0  0  0  0  0  0  0  0
    1.6643    4.7262   -1.0050 N   0  0  0  0  0  0  0  0  0  0  0  0
    0.5879   -3.9217   -0.3232 C   0  0  0  0  0  0  0  0  0  0  0  0
    0.9108   -4.8060   -1.4666 C   0  0  0  0  0  0  0  0  0  0  0  0
   -0.4941   -4.3291   -1.2490 C   0  0  0  0  0  0  0  0  0  0  0  0
    1.0651   -2.4833   -0.3879 C   0  0  0  0  0  0  0  0  0  0  0  0
    2.3879   -2.1185    0.0331 C   0  0  0  0  0  0  0  0  0  0  0  0
    2.9839   -0.8264    0.0367 C   0  0  0  0  0  0  0  0  0  0  0  0
    3.3171   -3.0096    0.5188 C   0  0  0  0  0  0  0  0  0  0  0  0
    4.2805   -0.9745    0.5341 C   0  0  0  0  0  0  0  0  0  0  0  0
    2.5435    0.4589   -0.3365 C   0  0  0  0  0  0  0  0  0  0  0  0
    5.1620    0.1028    0.6775 C   0  0  0  0  0  0  0  0  0  0  0  0
   -4.0791   -2.5494    1.0555 C   0  0  0  0  0  0  0  0  0  0  0  0
   -4.8025   -3.1474   -0.1223 C   0  0  1  0  0  0  0  0  0  0  0  0
    3.4143    1.5459   -0.1987 C   0  0  0  0  0  0  0  0  0  0  0  0
    5.6602   -2.9049    1.3552 C   0  0  0  0  0  0  0  0  0  0  0  0
   -5.4127   -1.9334   -0.7768 C   0  0  0  0  0  0  0  0  0  0  0  0
   -3.4454   -0.2649    1.5259 C   0  0  0  0  0  0  0  0  0  0  0  0
    4.7030    1.3683    0.3009 C   0  0  0  0  0  0  0  0  0  0  0  0
   -2.9209    1.0088    1.0057 C   0  0  0  0  0  0  0  0  0  0  0  0
   -3.6323    2.1890    0.7175 C   0  0  0  0  0  0  0  0  0  0  0  0
   -1.6176    1.3082    0.6920 C   0  0  0  0  0  0  0  0  0  0  0  0
    1.7133    3.4505   -0.5763 C   0  0  0  0  0  0  0  0  0  0  0  0
   -0.5196    3.3167   -0.1720 C   0  0  0  0  0  0  0  0  0  0  0  0
   -5.0777    2.4323    0.8681 C   0  0  0  0  0  0  0  0  0  0  0  0
   -0.7039    4.6195   -0.5879 C   0  0  0  0  0  0  0  0  0  0  0  0
    0.4350    5.2823   -0.9976 C   0  0  0  0  0  0  0  0  0  0  0  0
    0.5751   -4.3591    0.6694 H   0  0  0  0  0  0  0  0  0  0  0  0
    1.1283   -5.8463   -1.2574 H   0  0  0  0  0  0  0  0  0  0  0  0
    1.4551   -4.3982   -2.3096 H   0  0  0  0  0  0  0  0  0  0  0  0
   -0.8942   -3.6251   -1.9678 H   0  0  0  0  0  0  0  0  0  0  0  0
   -1.2183   -5.0524   -0.8932 H   0  0  0  0  0  0  0  0  0  0  0  0
    3.2677   -4.0790    0.6776 H   0  0  0  0  0  0  0  0  0  0  0  0
    1.5557    0.5652   -0.7679 H   0  0  0  0  0  0  0  0  0  0  0  0
   -4.7883   -2.3710    1.8733 H   0  0  0  0  0  0  0  0  0  0  0  0
   -3.2621   -3.1811    1.4178 H   0  0  0  0  0  0  0  0  0  0  0  0
   -5.5452   -3.8985    0.1609 H   0  0  0  0  0  0  0  0  0  0  0  0
    6.1664   -0.0287    1.0658 H   0  0  0  0  0  0  0  0  0  0  0  0
    6.4778   -2.7204    0.6537 H   0  0  0  0  0  0  0  0  0  0  0  0
    5.8692   -2.4453    2.3245 H   0  0  0  0  0  0  0  0  0  0  0  0
    5.5155   -3.9811    1.4796 H   0  0  0  0  0  0  0  0  0  0  0  0
   -5.4626   -2.0070   -1.8669 H   0  0  0  0  0  0  0  0  0  0  0  0
   -6.4118   -1.7277   -0.3793 H   0  0  0  0  0  0  0  0  0  0  0  0
   -2.7652   -0.6175    2.3129 H   0  0  0  0  0  0  0  0  0  0  0  0
   -4.4131   -0.0965    2.0174 H   0  0  0  0  0  0  0  0  0  0  0  0
    5.3733    2.2189    0.4059 H   0  0  0  0  0  0  0  0  0  0  0  0
    3.7314    3.4904   -0.7701 H   0  0  0  0  0  0  0  0  0  0  0  0
   -0.7177    0.7104    0.7530 H   0  0  0  0  0  0  0  0  0  0  0  0
   -4.3499   -4.0838   -1.7713 H   0  0  0  0  0  0  0  0  0  0  0  0
   -5.3854    2.2909    1.9092 H   0  0  0  0  0  0  0  0  0  0  0  0
   -5.3518    3.4519    0.5766 H   0  0  0  0  0  0  0  0  0  0  0  0
   -5.6534    1.7424    0.2430 H   0  0  0  0  0  0  0  0  0  0  0  0
   -1.6563    5.1340   -0.6109 H   0  0  0  0  0  0  0  0  0  0  0  0
    0.3897    6.3101   -1.3419 H   0  0  0  0  0  0  0  0  0  0  0  0
  1 14  2  0  0  0  0
  2  5  1  0  0  0  0
  2 25  1  0  0  0  0
  3 22  1  0  0  0  0
  3 57  1  0  0  0  0
  4 17  1  0  0  0  0
  4 18  1  0  0  0  0
  4 24  1  0  0  0  0
  5 21  1  0  0  0  0
  5 26  1  0  0  0  0
  6 23  1  0  0  0  0
  6 31  1  0  0  0  0
  6 55  1  0  0  0  0
  7  8  1  0  0  0  0
  7 30  1  0  0  0  0
  7 32  1  0  0  0  0
  8 29  2  0  0  0  0
  9 31  1  0  0  0  0
  9 32  2  0  0  0  0
 10 31  2  0  0  0  0
 10 35  1  0  0  0  0
 11 12  1  0  0  0  0
 11 13  1  0  0  0  0
 11 14  1  0  0  0  0
 11 36  1  0  0  0  0
 12 13  1  0  0  0  0
 12 37  1  0  0  0  0
 12 38  1  0  0  0  0
 13 39  1  0  0  0  0
 13 40  1  0  0  0  0
 14 15  1  0  0  0  0
 15 16  1  0  0  0  0
 15 17  2  0  0  0  0
 16 18  2  0  0  0  0
 16 19  1  0  0  0  0
 17 41  1  0  0  0  0
 18 20  1  0  0  0  0
 19 23  2  0  0  0  0
 19 42  1  0  0  0  0
 20 27  2  0  0  0  0
 20 46  1  0  0  0  0
 21 22  1  0  0  0  0
 21 43  1  0  0  0  0
 21 44  1  0  0  0  0
 22 25  1  0  0  0  0
 22 45  1  0  0  0  0
 23 27  1  0  0  0  0
 24 47  1  0  0  0  0
 24 48  1  0  0  0  0
 24 49  1  0  0  0  0
 25 50  1  0  0  0  0
 25 51  1  0  0  0  0
 26 28  1  0  0  0  0
 26 52  1  0  0  0  0
 26 53  1  0  0  0  0
 27 54  1  0  0  0  0
 28 29  1  0  0  0  0
 28 30  2  0  0  0  0
 29 33  1  0  0  0  0
 30 56  1  0  0  0  0
 32 34  1  0  0  0  0
 33 58  1  0  0  0  0
 33 59  1  0  0  0  0
 33 60  1  0  0  0  0
 34 35  2  0  0  0  0
 34 61  1  0  0  0  0
 35 62  1  0  0  0  0
M  END
> <PUBCHEM_COMPOUND_CID>
91754477

> <PUBCHEM_CONFORMER_RMSD>
1

> <PUBCHEM_CONFORMER_DIVERSEORDER>
1
118
159
236
144
42
281
152
188
80
97
230
226
244
177
123
67
125
45
63
65
129
255
257
142
246
115
242
89
109
121
179
139
247
19
172
284
202
62
158
234
252
213
61
98
204
203
262
18
229
266
167
85
245
176
168
223
219
174
112
191
278
120
201
190
127
216
17
205
259
50
261
161
285
99
72
82
200
15
186
264
92
29
71
165
210
13
64
69
256
207
227
133
209
30
48
183
86
189
215
135
248
282
218
104
126
33
232
221
237
24
96
267
151
220
184
279
194
68
170
268
254
117
149
233
75
196
122
91
217
271
171
269
276
143
113
243
253
134
60
136
3
270
214
155
212
187
100
66
164
130
87
197
138
51
137
272
132
274
150
124
8
250
108
79
53
162
102
153
228
52
2
88
131
181
105
173
211
240
156
21
84
185
154
111
78
145
163
20
74
55
249
182
273
10
157
193
239
180
206
23
70
222
103
57
107
76
38
178
27
101
54
147
148
141
14
275
37
44
192
198
73
81
83
195
56
7
128
175
260
77
106
28
283
11
169
160
114
277
224
36
47
166
286
116
22
225
58
238
39
251
90
6
34
12
258
31
25
231
208
40
146
16
26
119
199
59
235
5
263
94
32
35
280
9
93
110
43
140
4
95
265
46
41
241
49

> <PUBCHEM_MMFF94_PARTIAL_CHARGES>
48
1 -0.57
10 -0.62
11 -0.1
12 -0.2
13 -0.2
14 0.66
15 -0.09
17 -0.3
18 -0.15
19 -0.15
2 -0.18
20 -0.15
21 0.27
22 0.28
23 0.1
24 0.26
25 0.28
26 0.45
27 -0.15
28 -0.18
29 0.11
3 -0.68
30 -0.3
31 0.72
32 0.29
33 0.18
34 -0.15
35 0.16
36 0.1
37 0.1
38 0.1
39 0.1
4 0.05
40 0.1
41 0.15
42 0.15
46 0.15
5 -0.64
54 0.15
55 0.4
56 0.15
57 0.4
6 -0.6
61 0.15
62 0.15
7 0.59
8 -0.71
9 -0.62

> <PUBCHEM_EFFECTIVE_ROTOR_COUNT>
8.6

> <PUBCHEM_PHARMACOPHORE_FEATURES>
12
1 1 acceptor
1 3 acceptor
1 3 donor
1 4 cation
1 6 donor
1 8 acceptor
4 6 9 10 31 cation
5 2 5 21 22 25 rings
5 4 15 16 17 18 rings
5 7 8 28 29 30 rings
6 16 18 19 20 23 27 rings
6 9 10 31 32 34 35 rings

> <PUBCHEM_HEAVY_ATOM_COUNT>
35

> <PUBCHEM_ATOM_DEF_STEREO_COUNT>
1

> <PUBCHEM_ATOM_UDEF_STEREO_COUNT>
0

> <PUBCHEM_BOND_DEF_STEREO_COUNT>
0

> <PUBCHEM_BOND_UDEF_STEREO_COUNT>
0

> <PUBCHEM_ISOTOPIC_ATOM_COUNT>
0

> <PUBCHEM_COMPONENT_COUNT>
1

> <PUBCHEM_CACTVS_TAUTO_COUNT>
6

> <PUBCHEM_CONFORMER_ID>
05780FED00000001

> <PUBCHEM_MMFF94_ENERGY>
87.7922

> <PUBCHEM_FEATURE_SELFOVERLAP>
60.989

> <PUBCHEM_SHAPE_FINGERPRINT>
10290309 65 17185036064032722144
10622 236 18269827770066247095
10675989 125 17618216651602105893
10794284 68 17901660472421027778
11136131 41 18116706504070664296
11513181 2 18270696332449053318
12202916 173 18116429232969708937
1361 2 18048880985268007017
14117953 113 18196092140684658205
15145344 33 18198639902469692147
15250474 111 18339366387123173057
15264996 151 18187922932520281571
15320467 1 18122344841829589067
15351339 4 17042597085834016074
17627616 140 17617657000405315343
19301676 85 18190172383308810507
20764821 26 18336836298728544581
21133410 171 17392709836197526579
21133410 52 18122898992281062358
22113638 7 18195244644589113182
23559900 14 16753524991330564148
3882209 13 18119498081549737625
437795 70 17912118176197616398
437795 96 18050283665836513050
4403749 210 18122600792818096912
45266715 3 15883190021902382004
463206 1 18336552612071010689
56633871 153 18337399231877371209
9709674 26 17185591317985576076

> <PUBCHEM_SHAPE_MULTIPOLES>
667.81
11.32
8.48
1.17
1.45
2.82
-0.04
-6.37
-3.85
1.39
3.74
0.18
-0.51
-1.9

> <PUBCHEM_SHAPE_SELFOVERLAP>
1470.898

> <PUBCHEM_SHAPE_VOLUME>
361.6

> <PUBCHEM_COORDINATE_TYPE>
2
5
10

$$$$
4708
  -OEChem-11282412143D

 36 38  0     0  0  0  0  0  0999 V2000
    5.8623   -0.2519   -2.3561 Br  0  0  0  0  0  0  0  0  0  0  0  0
   -5.5451   -0.1587   -0.4416 O   0  0  0  0  0  0  0  0  0  0  0  0
    1.5804   -0.3439    0.7325 N   0  0  0  0  0  0  0  0  0  0  0  0
   -0.0940    3.3790    0.0505 N   0  0  0  0  0  0  0  0  0  0  0  0
    1.8173    1.9865    0.5138 N   0  0  0  0  0  0  0  0  0  0  0  0
   -3.4242   -1.0774    0.0026 N   0  0  0  0  0  0  0  0  0  0  0  0
   -0.3787    1.0076    0.2662 C   0  0  0  0  0  0  0  0  0  0  0  0
   -0.8906    2.2959    0.0412 C   0  0  0  0  0  0  0  0  0  0  0  0
    0.9914    0.9235    0.4975 C   0  0  0  0  0  0  0  0  0  0  0  0
   -1.2210   -0.1177    0.2538 C   0  0  0  0  0  0  0  0  0  0  0  0
   -2.5833    0.0354    0.0161 C   0  0  0  0  0  0  0  0  0  0  0  0
   -2.2577    2.4201   -0.1939 C   0  0  0  0  0  0  0  0  0  0  0  0
   -3.1019    1.3059   -0.2079 C   0  0  0  0  0  0  0  0  0  0  0  0
    2.8603   -0.8569    0.4692 C   0  0  0  0  0  0  0  0  0  0  0  0
    3.5983   -0.3847   -0.6205 C   0  0  0  0  0  0  0  0  0  0  0  0
    3.4062   -1.8439    1.2954 C   0  0  0  0  0  0  0  0  0  0  0  0
    1.2165    3.1655    0.2863 C   0  0  0  0  0  0  0  0  0  0  0  0
    4.8701   -0.8945   -0.8815 C   0  0  0  0  0  0  0  0  0  0  0  0
    4.6780   -2.3540    1.0342 C   0  0  0  0  0  0  0  0  0  0  0  0
    5.4100   -1.8793   -0.0542 C   0  0  0  0  0  0  0  0  0  0  0  0
   -4.8082   -1.1117   -0.2178 C   0  0  0  0  0  0  0  0  0  0  0  0
   -5.3418   -2.5032   -0.1509 C   0  0  0  0  0  0  0  0  0  0  0  0
   -6.6442   -2.7416   -0.3347 C   0  0  0  0  0  0  0  0  0  0  0  0
   -0.8320   -1.1195    0.4186 H   0  0  0  0  0  0  0  0  0  0  0  0
   -2.6874    3.4043   -0.3720 H   0  0  0  0  0  0  0  0  0  0  0  0
    1.0487   -0.9103    1.3878 H   0  0  0  0  0  0  0  0  0  0  0  0
   -4.1454    1.5136   -0.3998 H   0  0  0  0  0  0  0  0  0  0  0  0
   -2.9588   -1.9662    0.1759 H   0  0  0  0  0  0  0  0  0  0  0  0
    3.1800    0.3729   -1.2795 H   0  0  0  0  0  0  0  0  0  0  0  0
    2.8479   -2.2230    2.1479 H   0  0  0  0  0  0  0  0  0  0  0  0
    1.8529    4.0420    0.2921 H   0  0  0  0  0  0  0  0  0  0  0  0
    5.0983   -3.1206    1.6785 H   0  0  0  0  0  0  0  0  0  0  0  0
    6.3995   -2.2873   -0.2435 H   0  0  0  0  0  0  0  0  0  0  0  0
   -4.6603   -3.3228    0.0490 H   0  0  0  0  0  0  0  0  0  0  0  0
   -7.0215   -3.7576   -0.2839 H   0  0  0  0  0  0  0  0  0  0  0  0
   -7.3605   -1.9531   -0.5368 H   0  0  0  0  0  0  0  0  0  0  0  0
  1 18  1  0  0  0  0
  2 21  2  0  0  0  0
  3  9  1  0  0  0  0
  3 14  1  0  0  0  0
  3 26  1  0  0  0  0
  4  8  1  0  0  0  0
  4 17  2  0  0  0  0
  5  9  2  0  0  0  0
  5 17  1  0  0  0  0
  6 11  1  0  0  0  0
  6 21  1  0  0  0  0
  6 28  1  0  0  0  0
  7  8  2  0  0  0  0
  7  9  1  0  0  0  0
  7 10  1  0  0  0  0
  8 12  1  0  0  0  0
 10 11  2  0  0  0  0
 10 24  1  0  0  0  0
 11 13  1  0  0  0  0
 12 13  2  0  0  0  0
 12 25  1  0  0  0  0
 13 27  1  0  0  0  0
 14 15  2  0  0  0  0
 14 16  1  0  0  0  0
 15 18  1  0  0  0  0
 15 29  1  0  0  0  0
 16 19  2  0  0  0  0
 16 30  1  0  0  0  0
 17 31  1  0  0  0  0
 18 20  2  0  0  0  0
 19 20  1  0  0  0  0
 19 32  1  0  0  0  0
 20 33  1  0  0  0  0
 21 22  1  0  0  0  0
 22 23  2  0  0  0  0
 22 34  1  0  0  0  0
 23 35  1  0  0  0  0
 23 36  1  0  0  0  0
M  END
> <PUBCHEM_COMPOUND_CID>
4708

> <PUBCHEM_CONFORMER_RMSD>
0.8

> <PUBCHEM_CONFORMER_DIVERSEORDER>
1
20
34
15
25
30
23
8
4
22
31
10
12
16
18
28
6
32
17
7
2
3
21
11
26
9
27
14
19
24
5
33
13
29

> <PUBCHEM_MMFF94_PARTIAL_CHARGES>
35
1 -0.11
10 -0.15
11 0.12
12 -0.15
13 -0.15
14 0.1
15 -0.15
16 -0.15
17 0.47
18 0.11
19 -0.15
2 -0.57
20 -0.15
21 0.62
22 -0.14
23 -0.3
24 0.15
25 0.15
26 0.4
27 0.15
28 0.37
29 0.15
3 -0.6
30 0.15
31 0.15
32 0.15
33 0.15
34 0.15
35 0.15
36 0.15
4 -0.62
5 -0.62
6 -0.55
8 0.31
9 0.41

> <PUBCHEM_EFFECTIVE_ROTOR_COUNT>
5

> <PUBCHEM_PHARMACOPHORE_FEATURES>
10
1 1 hydrophobe
1 2 acceptor
1 23 hydrophobe
1 3 donor
1 6 donor
3 3 5 9 cation
3 4 5 17 cation
6 14 15 16 18 19 20 rings
6 4 5 7 8 9 17 rings
6 7 8 10 11 12 13 rings

> <PUBCHEM_HEAVY_ATOM_COUNT>
23

> <PUBCHEM_ATOM_DEF_STEREO_COUNT>
0

> <PUBCHEM_ATOM_UDEF_STEREO_COUNT>
0

> <PUBCHEM_BOND_DEF_STEREO_COUNT>
0

> <PUBCHEM_BOND_UDEF_STEREO_COUNT>
0

> <PUBCHEM_ISOTOPIC_ATOM_COUNT>
0

> <PUBCHEM_COMPONENT_COUNT>
1

> <PUBCHEM_CACTVS_TAUTO_COUNT>
6

> <PUBCHEM_CONFORMER_ID>
0000126400000001

> <PUBCHEM_MMFF94_ENERGY>
82.9926

> <PUBCHEM_FEATURE_SELFOVERLAP>
50.916

> <PUBCHEM_SHAPE_FINGERPRINT>
10042902 136 17703784885619022502
10050765 1 18411697708217692001
10411042 1 18410851066640414251
10622 236 17680129803829291330
10692045 39 9150908148054989140
12293681 25 17823989046165642441
12422481 6 16988843904036040255
12553582 1 18341600525625155382
12788726 201 18336553720272559538
13009979 54 18060149760267451297
13140716 1 18342450396668946385
13533116 47 18127409175908766099
13540713 4 18267562724400153065
13631057 29 18410295775157091538
13690498 29 18261110773256617167
13955234 65 17982167022357908313
14123256 34 18272097127495748543
14251740 57 18129376175998253459
14251764 30 18059867121143671630
14576447 43 18334577941001036186
14767858 380 18187094974769036726
14790565 3 17475234600395977577
14866123 147 18268429032684049881
14931854 50 18114187427999076062
15250474 111 18044368332008137586
15352361 1 18410569578763224275
15927050 60 17765150961769320006
17492 89 18267017453006401515
18222031 100 18272368680707257787
18681886 176 18336264528120787394
19246450 95 12029845093187865678
19319366 153 17895188931109422914
193927 3 18060138738885126685
20028762 73 16612795830184113262
20645477 70 18264198296275437897
20775438 99 17905307882384956547
21054139 6 18114745928719988362
21267235 1 18410859884910081211
21279426 13 18262502776832051997
21315759 148 17131554942917631818
21403212 168 10663550231585027740
21774942 28 14273996824180946454
22182313 1 18266433521241265193
22950370 63 18410858728614169947
23016692 55 18342463633588821191
23522609 53 18121250673147164089
23559900 14 18338505439664681145
2748736 6 9151180826960087803
2838139 119 14490466457037601862
3004659 81 17968374546836089402
314194 84 18334020483846901187
329604 57 18334860506820435766
335352 9 18338793421870409725
3421961 26 18340198708639903049
445580 126 8790620190892779903
46194498 28 17386561513345627389
465052 167 18272654579595508535
5104073 3 18202560674886192353
59755656 215 18193274311452964880
6669772 16 17979644764449127652
67856867 119 18114464441142601552
7237137 82 18187647951212577229
7970288 3 18411694370432081891
8863177 126 18043539519822255411
9709674 26 18190456263445854755

> <PUBCHEM_SHAPE_MULTIPOLES>
453.48
14.62
3.63
1.18
6.1
1.71
0.5
-15.97
5.34
2.26
-0.5
-2.4
-0.35
-1.07

> <PUBCHEM_SHAPE_SELFOVERLAP>
974.563

> <PUBCHEM_SHAPE_VOLUME>
255

> <PUBCHEM_COORDINATE_TYPE>
2
5
10

$$$$
3895
  -OEChem-11282412143D

 46 48  0     0  0  0  0  0  0999 V2000
   -2.6658   -0.8572    1.8165 O   0  0  0  0  0  0  0  0  0  0  0  0
    2.7209    1.2872   -1.1039 O   0  0  0  0  0  0  0  0  0  0  0  0
   -1.0492    4.3221    1.4012 O   0  0  0  0  0  0  0  0  0  0  0  0
   -1.1446    3.0746   -2.4928 O   0  0  0  0  0  0  0  0  0  0  0  0
   -2.3605    4.3122   -1.0244 O   0  0  0  0  0  0  0  0  0  0  0  0
    0.3334   -0.9062    0.0972 N   0  0  0  0  0  0  0  0  0  0  0  0
   -0.2546   -2.0188    0.8162 C   0  0  0  0  0  0  0  0  0  0  0  0
    1.2766   -1.1745   -0.9702 C   0  0  0  0  0  0  0  0  0  0  0  0
   -0.0181    0.4204    0.4229 C   0  0  0  0  0  0  0  0  0  0  0  0
   -1.6141   -2.3741    0.2872 C   0  0  0  0  0  0  0  0  0  0  0  0
    2.6992   -1.0353   -0.5110 C   0  0  0  0  0  0  0  0  0  0  0  0
   -0.6021    1.2433   -0.5402 C   0  0  0  0  0  0  0  0  0  0  0  0
    0.2166    0.9088    1.7080 C   0  0  0  0  0  0  0  0  0  0  0  0
   -2.7537   -1.7754    0.8136 C   0  0  0  0  0  0  0  0  0  0  0  0
    3.3519    0.1895   -0.6004 C   0  0  0  0  0  0  0  0  0  0  0  0
   -1.7151   -3.3105   -0.7362 C   0  0  0  0  0  0  0  0  0  0  0  0
    3.3527   -2.1496    0.0044 C   0  0  0  0  0  0  0  0  0  0  0  0
   -0.9515    2.5547   -0.2181 C   0  0  0  0  0  0  0  0  0  0  0  0
   -0.1329    2.2201    2.0304 C   0  0  0  0  0  0  0  0  0  0  0  0
   -0.7169    3.0432    1.0674 C   0  0  0  0  0  0  0  0  0  0  0  0
   -4.0090   -2.1170    0.3106 C   0  0  0  0  0  0  0  0  0  0  0  0
    4.6738    0.3013   -0.1691 C   0  0  0  0  0  0  0  0  0  0  0  0
   -2.9706   -3.6520   -1.2391 C   0  0  0  0  0  0  0  0  0  0  0  0
    4.6747   -2.0377    0.4354 C   0  0  0  0  0  0  0  0  0  0  0  0
   -4.1174   -3.0554   -0.7157 C   0  0  0  0  0  0  0  0  0  0  0  0
    5.3352   -0.8123    0.3486 C   0  0  0  0  0  0  0  0  0  0  0  0
   -1.5589    3.3984   -1.2381 C   0  0  0  0  0  0  0  0  0  0  0  0
   -0.3048   -1.8206    1.8945 H   0  0  0  0  0  0  0  0  0  0  0  0
    0.3944   -2.9025    0.7487 H   0  0  0  0  0  0  0  0  0  0  0  0
    1.0933   -0.5339   -1.8424 H   0  0  0  0  0  0  0  0  0  0  0  0
    1.1299   -2.1894   -1.3638 H   0  0  0  0  0  0  0  0  0  0  0  0
   -0.8036    0.8426   -1.5310 H   0  0  0  0  0  0  0  0  0  0  0  0
    0.6806    0.2852    2.4676 H   0  0  0  0  0  0  0  0  0  0  0  0
   -0.8307   -3.7845   -1.1527 H   0  0  0  0  0  0  0  0  0  0  0  0
    2.8512   -3.1106    0.0771 H   0  0  0  0  0  0  0  0  0  0  0  0
    0.0583    2.5880    3.0349 H   0  0  0  0  0  0  0  0  0  0  0  0
   -4.9110   -1.6599    0.7087 H   0  0  0  0  0  0  0  0  0  0  0  0
    5.2005    1.2498   -0.2307 H   0  0  0  0  0  0  0  0  0  0  0  0
   -3.0551   -4.3828   -2.0381 H   0  0  0  0  0  0  0  0  0  0  0  0
    5.1898   -2.9047    0.8385 H   0  0  0  0  0  0  0  0  0  0  0  0
   -5.0949   -3.3214   -1.1075 H   0  0  0  0  0  0  0  0  0  0  0  0
    6.3644   -0.7253    0.6843 H   0  0  0  0  0  0  0  0  0  0  0  0
   -3.5596   -0.5494    2.0446 H   0  0  0  0  0  0  0  0  0  0  0  0
    3.3317    2.0436   -1.0799 H   0  0  0  0  0  0  0  0  0  0  0  0
   -0.8122    4.4796    2.3312 H   0  0  0  0  0  0  0  0  0  0  0  0
   -1.5582    3.6476   -3.1732 H   0  0  0  0  0  0  0  0  0  0  0  0
  1 14  1  0  0  0  0
  1 43  1  0  0  0  0
  2 15  1  0  0  0  0
  2 44  1  0  0  0  0
  3 20  1  0  0  0  0
  3 45  1  0  0  0  0
  4 27  1  0  0  0  0
  4 46  1  0  0  0  0
  5 27  2  0  0  0  0
  6  7  1  0  0  0  0
  6  8  1  0  0  0  0
  6  9  1  0  0  0  0
  7 10  1  0  0  0  0
  7 28  1  0  0  0  0
  7 29  1  0  0  0  0
  8 11  1  0  0  0  0
  8 30  1  0  0  0  0
  8 31  1  0  0  0  0
  9 12  2  0  0  0  0
  9 13  1  0  0  0  0
 10 14  1  0  0  0  0
 10 16  2  0  0  0  0
 11 15  1  0  0  0  0
 11 17  2  0  0  0  0
 12 18  1  0  0  0  0
 12 32  1  0  0  0  0
 13 19  2  0  0  0  0
 13 33  1  0  0  0  0
 14 21  2  0  0  0  0
 15 22  2  0  0  0  0
 16 23  1  0  0  0  0
 16 34  1  0  0  0  0
 17 24  1  0  0  0  0
 17 35  1  0  0  0  0
 18 20  2  0  0  0  0
 18 27  1  0  0  0  0
 19 20  1  0  0  0  0
 19 36  1  0  0  0  0
 21 25  1  0  0  0  0
 21 37  1  0  0  0  0
 22 26  1  0  0  0  0
 22 38  1  0  0  0  0
 23 25  2  0  0  0  0
 23 39  1  0  0  0  0
 24 26  2  0  0  0  0
 24 40  1  0  0  0  0
 25 41  1  0  0  0  0
 26 42  1  0  0  0  0
M  END
> <PUBCHEM_COMPOUND_CID>
3895

> <PUBCHEM_CONFORMER_RMSD>
0.8

> <PUBCHEM_CONFORMER_DIVERSEORDER>
1
302
175
299
194
275
136
203
233
318
329
245
309
238
345
216
149
58
338
220
185
68
325
292
167
116
280
142
315
244
191
341
255
224
300
42
332
249
225
31
337
323
169
152
307
295
283
170
308
99
232
240
189
62
278
246
321
155
266
243
305
94
188
320
25
127
284
51
331
342
334
46
281
294
290
63
47
166
17
195
178
217
193
333
227
313
11
18
139
110
120
213
103
319
125
214
106
264
352
215
327
7
222
49
346
135
269
113
312
117
297
183
235
251
301
330
71
263
241
89
190
268
85
261
171
168
236
145
179
20
37
123
310
88
150
141
164
322
259
282
131
226
208
286
84
21
326
296
209
335
129
92
340
197
134
78
35
252
230
239
34
270
274
303
19
45
221
95
260
173
146
276
277
143
162
105
14
124
253
306
200
122
154
65
10
79
108
102
87
126
100
336
111
43
328
339
271
132
160
298
248
349
59
161
29
26
211
72
77
202
157
133
151
351
128
40
219
93
205
107
121
38
258
210
177
350
44
32
293
158
237
289
159
80
156
97
206
218
344
165
30
262
73
207
176
257
291
27
172
247
311
180
39
66
48
83
242
74
36
82
2
118
199
287
272
70
279
115
81
55
130
22
76
114
86
12
69
137
24
112
204
317
347
138
229
182
174
198
153
228
4
212
186
33
196
304
140
267
256
192
54
67
28
314
57
201
53
98
109
104
348
163
231
181
101
273
15
9
90
343
265
3
144
184
147
75
6
148
187
288
223
119
52
285
60
5
254
316
64
56
41
61
234
8
91
50
324
250
23
96
13
16

> <PUBCHEM_MMFF94_PARTIAL_CHARGES>
42
1 -0.53
10 -0.14
11 -0.14
12 -0.15
13 -0.15
14 0.08
15 0.08
16 -0.15
17 -0.15
18 0.09
19 -0.15
2 -0.53
20 0.08
21 -0.15
22 -0.15
23 -0.15
24 -0.15
25 -0.15
26 -0.15
27 0.63
3 -0.53
32 0.15
33 0.15
34 0.15
35 0.15
36 0.15
37 0.15
38 0.15
39 0.15
4 -0.65
40 0.15
41 0.15
42 0.15
43 0.45
44 0.45
45 0.45
46 0.5
5 -0.57
6 -0.84
7 0.51
8 0.51
9 0.1

> <PUBCHEM_EFFECTIVE_ROTOR_COUNT>
6

> <PUBCHEM_PHARMACOPHORE_FEATURES>
10
1 1 donor
1 2 donor
1 3 donor
1 4 acceptor
1 5 acceptor
1 6 cation
3 4 5 27 anion
6 10 14 16 21 23 25 rings
6 11 15 17 22 24 26 rings
6 9 12 13 18 19 20 rings

> <PUBCHEM_HEAVY_ATOM_COUNT>
27

> <PUBCHEM_ATOM_DEF_STEREO_COUNT>
0

> <PUBCHEM_ATOM_UDEF_STEREO_COUNT>
0

> <PUBCHEM_BOND_DEF_STEREO_COUNT>
0

> <PUBCHEM_BOND_UDEF_STEREO_COUNT>
0

> <PUBCHEM_ISOTOPIC_ATOM_COUNT>
0

> <PUBCHEM_COMPONENT_COUNT>
1

> <PUBCHEM_CACTVS_TAUTO_COUNT>
18

> <PUBCHEM_CONFORMER_ID>
00000F3700000001

> <PUBCHEM_MMFF94_ENERGY>
95.1601

> <PUBCHEM_FEATURE_SELFOVERLAP>
50.803

> <PUBCHEM_SHAPE_FINGERPRINT>
11045515 52 18337951306693692311
11578080 2 18130493232298460928
11582403 64 16737203951532259449
121448 382 17912067357480255592
12156800 1 17827599704516932281
12160290 23 18120966951864848362
12422481 6 17759281455452561017
12553582 1 18196392500506598546
12788726 201 18335133198631529834
13004483 165 18410014346718392875
13134695 92 18124314062865516495
133893 2 17619929682270866163
13681431 1 17907316677016349022
13899415 180 18194944460740753199
14068700 675 18337388357515497414
14251757 17 15865191475900800782
14347332 77 18270695203500746134
14955137 171 17550996809868830730
15439362 3 17689711287576569789
16988056 13 17977082872322358381
17138139 8 17693330562033190093
17980427 23 17345204474652750331
1813 80 18267602370868358855
19319366 153 17407665226229259277
20587220 17 16977889195470906809
20600515 1 17915759740943897390
20642791 105 18264475205512288322
21049683 271 17975699703183648174
21641784 216 18188506773384528828
23366157 5 17618217755472407043
23419403 2 17631151138824137712
23559900 14 17836639000622107579
283562 15 18408322177233849426
3493558 16 17968087685564000796
38695281 34 17541649522260635340
4066623 53 18119217745198420293
4340502 62 17693113876496227633
4409770 3 18338789005868439367
633830 44 8069214118664772034
7164475 11 18408605855723662782
81228 2 18193302778295489506

> <PUBCHEM_SHAPE_MULTIPOLES>
521.32
7.67
5.84
1.62
6.8
5.8
0.02
-8.8
-0.58
-5.33
-1.18
-0.73
1.38
-0.15

> <PUBCHEM_SHAPE_SELFOVERLAP>
1138.747

> <PUBCHEM_SHAPE_VOLUME>
282

> <PUBCHEM_COORDINATE_TYPE>
2
5
10

$$$$
667639
  -OEChem-11282412143D

 30 31  0     0  0  0  0  0  0999 V2000
   -4.9869    1.6420    0.8824 O   0  0  0  0  0  0  0  0  0  0  0  0
    5.1716   -2.0059    0.6387 O   0  0  0  0  0  0  0  0  0  0  0  0
    4.2974    2.5298   -0.5648 O   0  0  0  0  0  0  0  0  0  0  0  0
   -5.8851   -0.7432   -0.2262 O   0  0  0  0  0  0  0  0  0  0  0  0
    2.0350   -0.2780   -0.0378 C   0  0  0  0  0  0  0  0  0  0  0  0
   -1.8187    0.0770   -0.0536 C   0  0  0  0  0  0  0  0  0  0  0  0
    0.5906   -0.5670   -0.0778 C   0  0  0  0  0  0  0  0  0  0  0  0
   -0.3933    0.3597    0.0049 C   0  0  0  0  0  0  0  0  0  0  0  0
   -2.7348    1.0023    0.4467 C   0  0  0  0  0  0  0  0  0  0  0  0
    2.4786    1.0027   -0.3240 C   0  0  0  0  0  0  0  0  0  0  0  0
    2.9211   -1.2929    0.2854 C   0  0  0  0  0  0  0  0  0  0  0  0
   -2.2698   -1.1202   -0.6096 C   0  0  0  0  0  0  0  0  0  0  0  0
   -4.1019    0.7304    0.3912 C   0  0  0  0  0  0  0  0  0  0  0  0
    4.2884   -1.0194    0.3232 C   0  0  0  0  0  0  0  0  0  0  0  0
    3.8460    1.2763   -0.2862 C   0  0  0  0  0  0  0  0  0  0  0  0
   -3.6365   -1.3922   -0.6651 C   0  0  0  0  0  0  0  0  0  0  0  0
   -4.5526   -0.4668   -0.1649 C   0  0  0  0  0  0  0  0  0  0  0  0
    4.7509    0.2652    0.0375 C   0  0  0  0  0  0  0  0  0  0  0  0
    0.3516   -1.6235   -0.1654 H   0  0  0  0  0  0  0  0  0  0  0  0
   -0.1509    1.4095    0.1453 H   0  0  0  0  0  0  0  0  0  0  0  0
   -2.3959    1.9391    0.8842 H   0  0  0  0  0  0  0  0  0  0  0  0
    1.8082    1.8103   -0.6019 H   0  0  0  0  0  0  0  0  0  0  0  0
    2.5635   -2.2949    0.5104 H   0  0  0  0  0  0  0  0  0  0  0  0
   -1.5971   -1.8608   -1.0319 H   0  0  0  0  0  0  0  0  0  0  0  0
   -3.9751   -2.3263   -1.1055 H   0  0  0  0  0  0  0  0  0  0  0  0
    5.8179    0.4716    0.0688 H   0  0  0  0  0  0  0  0  0  0  0  0
   -5.8863    1.2908    0.7620 H   0  0  0  0  0  0  0  0  0  0  0  0
    4.6797   -2.8281    0.8062 H   0  0  0  0  0  0  0  0  0  0  0  0
    5.2673    2.5392   -0.4916 H   0  0  0  0  0  0  0  0  0  0  0  0
   -6.0092   -1.6137   -0.6417 H   0  0  0  0  0  0  0  0  0  0  0  0
  1 13  1  0  0  0  0
  1 27  1  0  0  0  0
  2 14  1  0  0  0  0
  2 28  1  0  0  0  0
  3 15  1  0  0  0  0
  3 29  1  0  0  0  0
  4 17  1  0  0  0  0
  4 30  1  0  0  0  0
  5  7  1  0  0  0  0
  5 10  2  0  0  0  0
  5 11  1  0  0  0  0
  6  8  1  0  0  0  0
  6  9  2  0  0  0  0
  6 12  1  0  0  0  0
  7  8  2  0  0  0  0
  7 19  1  0  0  0  0
  8 20  1  0  0  0  0
  9 13  1  0  0  0  0
  9 21  1  0  0  0  0
 10 15  1  0  0  0  0
 10 22  1  0  0  0  0
 11 14  2  0  0  0  0
 11 23  1  0  0  0  0
 12 16  2  0  0  0  0
 12 24  1  0  0  0  0
 13 17  2  0  0  0  0
 14 18  1  0  0  0  0
 15 18  2  0  0  0  0
 16 17  1  0  0  0  0
 16 25  1  0  0  0  0
 18 26  1  0  0  0  0
M  END
> <PUBCHEM_COMPOUND_CID>
667639

> <PUBCHEM_CONFORMER_RMSD>
0.6

> <PUBCHEM_CONFORMER_DIVERSEORDER>
3
1
2

> <PUBCHEM_MMFF94_PARTIAL_CHARGES>
30
1 -0.53
10 -0.15
11 -0.15
12 -0.15
13 0.08
14 0.08
15 0.08
16 -0.15
17 0.08
18 -0.15
19 0.15
2 -0.53
20 0.15
21 0.15
22 0.15
23 0.15
24 0.15
25 0.15
26 0.15
27 0.45
28 0.45
29 0.45
3 -0.53
30 0.45
4 -0.53
5 0.03
6 0.03
7 -0.18
8 -0.18
9 -0.15

> <PUBCHEM_EFFECTIVE_ROTOR_COUNT>
2

> <PUBCHEM_PHARMACOPHORE_FEATURES>
6
1 1 donor
1 2 donor
1 3 donor
1 4 donor
6 5 10 11 14 15 18 rings
6 6 9 12 13 16 17 rings

> <PUBCHEM_HEAVY_ATOM_COUNT>
18

> <PUBCHEM_ATOM_DEF_STEREO_COUNT>
0

> <PUBCHEM_ATOM_UDEF_STEREO_COUNT>
0

> <PUBCHEM_BOND_DEF_STEREO_COUNT>
1

> <PUBCHEM_BOND_UDEF_STEREO_COUNT>
0

> <PUBCHEM_ISOTOPIC_ATOM_COUNT>
0

> <PUBCHEM_COMPONENT_COUNT>
1

> <PUBCHEM_CACTVS_TAUTO_COUNT>
80

> <PUBCHEM_CONFORMER_ID>
000A2FF700000003

> <PUBCHEM_MMFF94_ENERGY>
51.8012

> <PUBCHEM_FEATURE_SELFOVERLAP>
30.453

> <PUBCHEM_SHAPE_FINGERPRINT>
10595046 47 18339923830495452085
10912923 1 18342741827405540529
10937287 8 17176605512105725828
11405975 8 18409449180651361834
12107183 9 17763465019475068403
12236239 1 18412544297203841675
12616971 3 18410575067488497479
13073987 5 18411982481295950977
13167372 99 18339927013388550057
13167823 11 18410853265410812810
13533116 47 18407757040872717586
14528608 73 18339646745244635820
15196674 1 18411418422971772741
15250474 111 18270949241271912574
15788980 27 18411702075549708595
17834072 33 18411698811406238103
17844677 252 18335144167587392453
18186145 218 17457778994473987282
18222031 100 15863790603560765006
19050596 39 18412544301519901410
200 152 18412822490973263667
20612939 158 18260831514282674740
20645477 70 18335137575266397078
21033648 29 16733252517279449765
21065198 48 18411702092750728685
21267235 1 18411424998630370270
22646028 1 18411416202473758690
23402539 116 18202275875805033037
23402655 69 18413109489541596260
23559900 14 18339636845102081040
29717793 49 18272086076169869071
300161 21 18341887506680958300
3004659 81 18343305842906580990
34797466 226 16845019029568411916
3545911 37 18334296508736485364
4073 2 17968382359217895426
42 15 18409730629821293118
4214541 1 18413107238809999377
474 4 17969225710258620444
5104073 3 18411982472479053203
522135 26 18261110777562152934
5281201 14 17676203550916431204
542803 24 18409168813718034993
559249 180 18341045203807860691
573450 72 18272645740663310011
633830 44 18187080659052325098
67856867 119 18341044211944657224
7495541 125 17917987317004409403
77779 3 18411419522494008527
90127 26 18338531780018326673
9709674 26 18411989043874707942
9971528 1 17748827427697108396

> <PUBCHEM_SHAPE_MULTIPOLES>
346.95
13.45
1.82
0.75
3.06
0.37
0
-0.14
-0.86
-1.44
0.02
0.12
0.02
-1.65

> <PUBCHEM_SHAPE_SELFOVERLAP>
753.036

> <PUBCHEM_SHAPE_VOLUME>
190.3

> <PUBCHEM_COORDINATE_TYPE>
2
5
10

$$$$
5281222
  -OEChem-11282412143D

 32 33  0     0  0  0  0  0  0999 V2000
    2.7955   -0.1798    2.2655 O   0  0  0  0  0  0  0  0  0  0  0  0
   -5.9095   -1.0693   -0.5658 O   0  0  0  0  0  0  0  0  0  0  0  0
    6.2232    1.4932   -0.5899 O   0  0  0  0  0  0  0  0  0  0  0  0
   -6.0477    1.6549   -0.0348 O   0  0  0  0  0  0  0  0  0  0  0  0
    1.3406   -2.4230    0.1665 O   0  0  0  0  0  0  0  0  0  0  0  0
    2.6376   -0.4873   -0.1075 C   0  0  0  0  0  0  0  0  0  0  0  0
   -2.3910   -0.3090    0.0715 C   0  0  0  0  0  0  0  0  0  0  0  0
    3.2972   -0.0119    1.0095 C   0  0  0  0  0  0  0  0  0  0  0  0
    1.3480   -1.2032    0.0440 C   0  0  0  0  0  0  0  0  0  0  0  0
   -1.1082   -0.9932    0.1106 C   0  0  0  0  0  0  0  0  0  0  0  0
    3.1450   -0.3185   -1.3821 C   0  0  0  0  0  0  0  0  0  0  0  0
   -3.5520   -1.0206   -0.2309 C   0  0  0  0  0  0  0  0  0  0  0  0
   -2.4603    1.0586    0.3366 C   0  0  0  0  0  0  0  0  0  0  0  0
    0.0988   -0.3925    0.0084 C   0  0  0  0  0  0  0  0  0  0  0  0
   -4.7825   -0.3645   -0.2681 C   0  0  0  0  0  0  0  0  0  0  0  0
    4.5100    0.6575    0.8464 C   0  0  0  0  0  0  0  0  0  0  0  0
    4.3577    0.3514   -1.5452 C   0  0  0  0  0  0  0  0  0  0  0  0
    5.0402    0.8393   -0.4309 C   0  0  0  0  0  0  0  0  0  0  0  0
   -4.8519    1.0032   -0.0030 C   0  0  0  0  0  0  0  0  0  0  0  0
   -3.6908    1.7147    0.2993 C   0  0  0  0  0  0  0  0  0  0  0  0
   -1.1597   -2.0746    0.2170 H   0  0  0  0  0  0  0  0  0  0  0  0
    2.6196   -0.6964   -2.2544 H   0  0  0  0  0  0  0  0  0  0  0  0
   -3.5108   -2.0872   -0.4412 H   0  0  0  0  0  0  0  0  0  0  0  0
   -1.5866    1.6493    0.5960 H   0  0  0  0  0  0  0  0  0  0  0  0
    0.2197    0.6763   -0.1249 H   0  0  0  0  0  0  0  0  0  0  0  0
    5.0373    1.0356    1.7188 H   0  0  0  0  0  0  0  0  0  0  0  0
    4.7656    0.4897   -2.5428 H   0  0  0  0  0  0  0  0  0  0  0  0
   -3.7318    2.7796    0.5123 H   0  0  0  0  0  0  0  0  0  0  0  0
    1.9675   -0.6856    2.2360 H   0  0  0  0  0  0  0  0  0  0  0  0
   -6.6664   -0.4581   -0.5472 H   0  0  0  0  0  0  0  0  0  0  0  0
    6.5554    1.7613    0.2841 H   0  0  0  0  0  0  0  0  0  0  0  0
   -5.9024    2.5937    0.1734 H   0  0  0  0  0  0  0  0  0  0  0  0
  1  8  1  0  0  0  0
  1 29  1  0  0  0  0
  2 15  1  0  0  0  0
  2 30  1  0  0  0  0
  3 18  1  0  0  0  0
  3 31  1  0  0  0  0
  4 19  1  0  0  0  0
  4 32  1  0  0  0  0
  5  9  2  0  0  0  0
  6  8  2  0  0  0  0
  6  9  1  0  0  0  0
  6 11  1  0  0  0  0
  7 10  1  0  0  0  0
  7 12  2  0  0  0  0
  7 13  1  0  0  0  0
  8 16  1  0  0  0  0
  9 14  1  0  0  0  0
 10 14  2  0  0  0  0
 10 21  1  0  0  0  0
 11 17  2  0  0  0  0
 11 22  1  0  0  0  0
 12 15  1  0  0  0  0
 12 23  1  0  0  0  0
 13 20  2  0  0  0  0
 13 24  1  0  0  0  0
 14 25  1  0  0  0  0
 15 19  2  0  0  0  0
 16 18  2  0  0  0  0
 16 26  1  0  0  0  0
 17 18  1  0  0  0  0
 17 27  1  0  0  0  0
 19 20  1  0  0  0  0
 20 28  1  0  0  0  0
M  END
> <PUBCHEM_COMPOUND_CID>
5281222

> <PUBCHEM_CONFORMER_RMSD>
0.6

> <PUBCHEM_CONFORMER_DIVERSEORDER>
1
39
26
17
31
23
44
21
42
5
35
37
11
20
7
47
9
15
36
29
18
3
19
43
40
45
41
25
22
12
48
2
28
14
24
8
27
33
6
30
38
10
13
16
32
4
46
34

> <PUBCHEM_MMFF94_PARTIAL_CHARGES>
32
1 -0.53
10 -0.18
11 -0.15
12 -0.15
13 -0.15
14 -0.14
15 0.08
16 -0.15
17 -0.15
18 0.08
19 0.08
2 -0.53
20 -0.15
21 0.15
22 0.15
23 0.15
24 0.15
25 0.15
26 0.15
27 0.15
28 0.15
29 0.45
3 -0.53
30 0.45
31 0.45
32 0.45
4 -0.53
5 -0.57
6 0.09
7 0.03
8 0.08
9 0.47

> <PUBCHEM_EFFECTIVE_ROTOR_COUNT>
3

> <PUBCHEM_PHARMACOPHORE_FEATURES>
7
1 1 donor
1 2 donor
1 3 donor
1 4 donor
1 5 acceptor
6 6 8 11 16 17 18 rings
6 7 12 13 15 19 20 rings

> <PUBCHEM_HEAVY_ATOM_COUNT>
20

> <PUBCHEM_ATOM_DEF_STEREO_COUNT>
0

> <PUBCHEM_ATOM_UDEF_STEREO_COUNT>
0

> <PUBCHEM_BOND_DEF_STEREO_COUNT>
1

> <PUBCHEM_BOND_UDEF_STEREO_COUNT>
0

> <PUBCHEM_ISOTOPIC_ATOM_COUNT>
0

> <PUBCHEM_COMPONENT_COUNT>
1

> <PUBCHEM_CACTVS_TAUTO_COUNT>
183

> <PUBCHEM_CONFORMER_ID>
005095C600000001

> <PUBCHEM_MMFF94_ENERGY>
61.4616

> <PUBCHEM_FEATURE_SELFOVERLAP>
35.527

> <PUBCHEM_SHAPE_FINGERPRINT>
10354089 29 16950004738258847196
10366900 7 18412823616492183067
10498660 4 18343302535270372136
10670039 82 18337681819440255636
10688039 33 14996277015998652958
10912923 1 17822004311808458003
11089746 13 18040717008674074508
11128504 68 14189570857963955434
12236239 1 18040431096568788050
12390115 104 17917160386441691553
12596602 18 17458346342605964361
12633257 1 15357982312859170684
12730499 353 17346319327792723654
13533116 47 15792007814578705337
13631057 29 17605279678253861491
13675066 3 13118004396466427555
14251718 22 18202004347671802189
14341114 176 13984664759095125534
14341114 328 17458341957423021912
14528608 73 18342455950071533669
15142526 21 17314797515014889288
15188451 53 12035740855119714505
15348495 7 13262690261010105805
15885798 251 9007060162294254558
15961568 22 18334861610442895820
17844677 252 15698002942211549985
17857418 61 10015579493726974701
19141452 34 11386369257315670521
19784866 140 15985110695131636074
200 152 14189582931312450002
20369508 70 10879983649663201598
20645477 70 16200163075339815262
212847 35 18412542094423676178
21637258 2 12391525140025107380
22061861 79 16343428331931264100
221357 26 16630528414456322480
22224240 67 14707488148802951056
22289505 5 17418093200622897032
22950370 63 11095885968784977450
23557571 272 17988929989525492637
23559900 14 17841425930541056919
26918003 58 13190336881026948854
2767999 5 18040152937280521437
300161 21 18040714749637139317
3060560 45 16200432473110880956
3472631 163 18336270149636677820
34797466 226 17846505875770904237
4325135 7 18412544336422946143
46194498 28 16845297167920062040
474 4 17749395883497798878
4990 188 17489592251159122406
5104073 3 18336831871329770547
5281201 14 16558754494476259288
53794403 172 18195808702734852552
542803 24 18040715865954141703
5924683 9 14274036475635248281
59755656 520 18260264174836396678
67856867 119 18336823070245708026
7808743 9 18337953493142795186
8863177 126 11887082489319301245
960060 61 13614516372495276866
9841814 1 10375580474318369414

> <PUBCHEM_SHAPE_MULTIPOLES>
382.24
14.89
1.62
1.17
5.02
0.09
0.23
-6.01
-2.57
0.91
0.02
-1.79
-0.03
-0.48

> <PUBCHEM_SHAPE_SELFOVERLAP>
830.1

> <PUBCHEM_SHAPE_VOLUME>
208.6

> <PUBCHEM_COORDINATE_TYPE>
2
5
10

$$$$
5329106
  -OEChem-11282412143D

 54 57  0     0  0  0  0  0  0999 V2000
    7.3678   -1.4903   -2.1593 F   0  0  0  0  0  0  0  0  0  0  0  0
   -3.2876    2.4157   -0.3100 O   0  0  0  0  0  0  0  0  0  0  0  0
    1.8473    0.4285    2.0094 O   0  0  0  0  0  0  0  0  0  0  0  0
   -6.4864   -0.8124   -0.1686 N   0  0  0  0  0  0  0  0  0  0  0  0
   -3.0006    0.2898    0.5347 N   0  0  0  0  0  0  0  0  0  0  0  0
    0.9541    2.4110   -0.4202 N   0  0  0  0  0  0  0  0  0  0  0  0
    4.0132   -0.5134    2.0574 N   0  0  0  0  0  0  0  0  0  0  0  0
   -7.1827   -1.3918   -1.3169 C   0  0  0  0  0  0  0  0  0  0  0  0
   -6.7043   -1.7590    0.9248 C   0  0  0  0  0  0  0  0  0  0  0  0
   -8.4842   -1.8939   -0.7091 C   0  0  0  0  0  0  0  0  0  0  0  0
   -8.1708   -2.1319    0.7648 C   0  0  0  0  0  0  0  0  0  0  0  0
   -5.0734   -0.5844   -0.4327 C   0  0  0  0  0  0  0  0  0  0  0  0
   -4.4040    0.0457    0.7798 C   0  0  0  0  0  0  0  0  0  0  0  0
   -1.0905    1.5672   -0.2213 C   0  0  0  0  0  0  0  0  0  0  0  0
   -0.1929    0.5119   -0.5180 C   0  0  0  0  0  0  0  0  0  0  0  0
   -2.5084    1.4880   -0.0089 C   0  0  0  0  0  0  0  0  0  0  0  0
    1.0371    1.0734   -0.6299 C   0  0  0  0  0  0  0  0  0  0  0  0
   -0.3546    2.7302   -0.1671 C   0  0  0  0  0  0  0  0  0  0  0  0
    2.3390    0.5424   -0.9134 C   0  0  0  0  0  0  0  0  0  0  0  0
    3.1845    0.0741    0.0065 C   0  0  0  0  0  0  0  0  0  0  0  0
   -0.5415   -0.9164   -0.6728 C   0  0  0  0  0  0  0  0  0  0  0  0
    4.5198   -0.4815   -0.1854 C   0  0  0  0  0  0  0  0  0  0  0  0
   -0.7571    4.1247    0.1014 C   0  0  0  0  0  0  0  0  0  0  0  0
    4.9770   -0.8219    1.0910 C   0  0  0  0  0  0  0  0  0  0  0  0
    2.8712    0.0454    1.4745 C   0  0  0  0  0  0  0  0  0  0  0  0
    5.3096   -0.6980   -1.2988 C   0  0  0  0  0  0  0  0  0  0  0  0
    6.2205   -1.3831    1.3059 C   0  0  0  0  0  0  0  0  0  0  0  0
    6.5734   -1.2654   -1.1037 C   0  0  0  0  0  0  0  0  0  0  0  0
    7.0244   -1.6045    0.1860 C   0  0  0  0  0  0  0  0  0  0  0  0
   -7.3641   -0.6545   -2.1052 H   0  0  0  0  0  0  0  0  0  0  0  0
   -6.6263   -2.2343   -1.7475 H   0  0  0  0  0  0  0  0  0  0  0  0
   -6.0803   -2.6560    0.8214 H   0  0  0  0  0  0  0  0  0  0  0  0
   -6.5331   -1.3208    1.9128 H   0  0  0  0  0  0  0  0  0  0  0  0
   -8.8313   -2.8075   -1.2024 H   0  0  0  0  0  0  0  0  0  0  0  0
   -9.2746   -1.1400   -0.8030 H   0  0  0  0  0  0  0  0  0  0  0  0
   -8.8068   -1.4908    1.3867 H   0  0  0  0  0  0  0  0  0  0  0  0
   -8.3550   -3.1711    1.0557 H   0  0  0  0  0  0  0  0  0  0  0  0
   -4.5568   -1.5152   -0.7033 H   0  0  0  0  0  0  0  0  0  0  0  0
   -4.9676    0.0927   -1.2900 H   0  0  0  0  0  0  0  0  0  0  0  0
   -4.8897    0.9911    1.0473 H   0  0  0  0  0  0  0  0  0  0  0  0
   -4.4370   -0.6121    1.6537 H   0  0  0  0  0  0  0  0  0  0  0  0
   -2.3567   -0.4234    0.8545 H   0  0  0  0  0  0  0  0  0  0  0  0
    1.7218    3.0697   -0.4446 H   0  0  0  0  0  0  0  0  0  0  0  0
    2.6295    0.5343   -1.9612 H   0  0  0  0  0  0  0  0  0  0  0  0
    0.2155   -1.4416   -1.2663 H   0  0  0  0  0  0  0  0  0  0  0  0
   -0.5886   -1.4154    0.3001 H   0  0  0  0  0  0  0  0  0  0  0  0
   -1.4911   -1.0511   -1.1997 H   0  0  0  0  0  0  0  0  0  0  0  0
    0.1098    4.7749    0.2597 H   0  0  0  0  0  0  0  0  0  0  0  0
   -1.3286    4.5269   -0.7412 H   0  0  0  0  0  0  0  0  0  0  0  0
   -1.3805    4.1823    0.9995 H   0  0  0  0  0  0  0  0  0  0  0  0
    4.1413   -0.6795    3.0487 H   0  0  0  0  0  0  0  0  0  0  0  0
    4.9732   -0.4410   -2.2970 H   0  0  0  0  0  0  0  0  0  0  0  0
    6.5665   -1.6437    2.2996 H   0  0  0  0  0  0  0  0  0  0  0  0
    8.0107   -2.0440    0.3087 H   0  0  0  0  0  0  0  0  0  0  0  0
  1 28  1  0  0  0  0
  2 16  2  0  0  0  0
  3 25  2  0  0  0  0
  4  8  1  0  0  0  0
  4  9  1  0  0  0  0
  4 12  1  0  0  0  0
  5 13  1  0  0  0  0
  5 16  1  0  0  0  0
  5 42  1  0  0  0  0
  6 17  1  0  0  0  0
  6 18  1  0  0  0  0
  6 43  1  0  0  0  0
  7 24  1  0  0  0  0
  7 25  1  0  0  0  0
  7 51  1  0  0  0  0
  8 10  1  0  0  0  0
  8 30  1  0  0  0  0
  8 31  1  0  0  0  0
  9 11  1  0  0  0  0
  9 32  1  0  0  0  0
  9 33  1  0  0  0  0
 10 11  1  0  0  0  0
 10 34  1  0  0  0  0
 10 35  1  0  0  0  0
 11 36  1  0  0  0  0
 11 37  1  0  0  0  0
 12 13  1  0  0  0  0
 12 38  1  0  0  0  0
 12 39  1  0  0  0  0
 13 40  1  0  0  0  0
 13 41  1  0  0  0  0
 14 15  1  0  0  0  0
 14 16  1  0  0  0  0
 14 18  2  0  0  0  0
 15 17  2  0  0  0  0
 15 21  1  0  0  0  0
 17 19  1  0  0  0  0
 18 23  1  0  0  0  0
 19 20  2  0  0  0  0
 19 44  1  0  0  0  0
 20 22  1  0  0  0  0
 20 25  1  0  0  0  0
 21 45  1  0  0  0  0
 21 46  1  0  0  0  0
 21 47  1  0  0  0  0
 22 24  2  0  0  0  0
 22 26  1  0  0  0  0
 23 48  1  0  0  0  0
 23 49  1  0  0  0  0
 23 50  1  0  0  0  0
 24 27  1  0  0  0  0
 26 28  2  0  0  0  0
 26 52  1  0  0  0  0
 27 29  2  0  0  0  0
 27 53  1  0  0  0  0
 28 29  1  0  0  0  0
 29 54  1  0  0  0  0
M  END
> <PUBCHEM_COMPOUND_CID>
5329106

> <PUBCHEM_CONFORMER_RMSD>
0.8

> <PUBCHEM_CONFORMER_DIVERSEORDER>
1
14
68
77
63
35
78
81
80
55
84
75
21
76
64
8
67
18
83
65
60
43
69
24
73
7
85
6
50
44
53
86
29
58
72
28
20
49
15
27
74
38
22
11
70
87
82
13
52
36
51
71
46
62
12
61
2
39
26
5
47
23
10
66
31
57
42
34
33
32
4
25
54
88
41
19
37
45
59
3
17
48
16
56
9
79
40
30

> <PUBCHEM_MMFF94_PARTIAL_CHARGES>
34
1 -0.19
12 0.27
13 0.3
14 -0.09
15 -0.18
16 0.72
17 -0.2
18 -0.33
19 -0.11
2 -0.57
20 -0.01
21 0.18
22 0.03
23 0.18
24 0.12
25 0.62
26 -0.15
27 -0.15
28 0.19
29 -0.15
3 -0.57
4 -0.81
42 0.37
43 0.27
44 0.15
5 -0.73
51 0.37
52 0.15
53 0.15
54 0.15
6 0.03
7 -0.55
8 0.27
9 0.27

> <PUBCHEM_EFFECTIVE_ROTOR_COUNT>
7.2

> <PUBCHEM_PHARMACOPHORE_FEATURES>
11
1 2 acceptor
1 3 acceptor
1 4 cation
1 5 donor
1 6 cation
1 6 donor
1 7 donor
5 4 8 9 10 11 rings
5 6 14 15 17 18 rings
5 7 20 22 24 25 rings
6 22 24 26 27 28 29 rings

> <PUBCHEM_HEAVY_ATOM_COUNT>
29

> <PUBCHEM_ATOM_DEF_STEREO_COUNT>
0

> <PUBCHEM_ATOM_UDEF_STEREO_COUNT>
0

> <PUBCHEM_BOND_DEF_STEREO_COUNT>
1

> <PUBCHEM_BOND_UDEF_STEREO_COUNT>
0

> <PUBCHEM_ISOTOPIC_ATOM_COUNT>
0

> <PUBCHEM_COMPONENT_COUNT>
1

> <PUBCHEM_CACTVS_TAUTO_COUNT>
6

> <PUBCHEM_CONFORMER_ID>
005150D200000001

> <PUBCHEM_MMFF94_ENERGY>
65.8227

> <PUBCHEM_FEATURE_SELFOVERLAP>
55.91

> <PUBCHEM_SHAPE_FINGERPRINT>
10 15 13183022934528071783
10076449 9 17846226548979253622
10411042 1 18410576197645879261
11115154 58 16153422827585024701
11297750 10 18335973247301847037
11408170 132 17312814975185229397
117089 54 18192995920295025762
12166972 35 18201721799438915377
12236239 1 17605000226301178988
12293681 160 11674875585100527941
12838862 33 15647349567745827646
13631057 29 18188208706706644312
13668630 136 18259983799571377495
13673619 4 18131069320794035264
13690498 29 17967808341397379509
13692115 27 18410856573406426069
13782708 43 17988641835943494502
13862211 1 18408886235119339167
14068700 675 18334013878192675589
14117953 113 18412258446594856423
14123256 34 18408605881487879811
14931854 50 17240483593782203139
15183329 4 15936682710440345391
15188451 53 18131348622844094697
15301273 46 17988641870139643793
15510800 12 18339093652463237263
16728433 281 15214675154841765703
16991971 28 18409172129612434591
17134984 74 16805321127818860339
1818759 1 18408612474389844939
18222031 100 18410009957525514873
18335252 98 18202002127996662214
19302320 297 12751233744253418379
20028762 73 18273215330979569551
21150785 3 15864069884236539599
21267235 1 18411423912187884143
21304304 249 18342176696031232991
21585483 132 17315341550027844498
23389318 12 18041005059546252990
23522609 53 17972352587936804828
23559900 14 17677331761922217561
255183 451 18410295838901762493
3004659 81 17748823051346700003
3383291 50 18410572916364984675
3627633 1 18338517430950575749
3633792 109 16732701653495757517
406291 66 18411416250536622111
4339292 15 18340203004082368374
4340502 62 15267348426577390653
465052 167 18336548304434557871
5385378 56 10807945851024241124
5470011 282 17022910063808815399
563151 248 16773792623840785695
5718773 13 18409446999219418723
57634706 306 14129638717603267782
58260988 521 17417817210435267118
5937810 71 13912312457687876887
59682541 52 14923934639685031384
9896288 288 18057609772522240561

> <PUBCHEM_SHAPE_MULTIPOLES>
557.87
23.3
2.94
1.48
23.62
3.23
-0.2
-25.95
2.71
2.4
0.08
-1.93
-0.6
0.28

> <PUBCHEM_SHAPE_SELFOVERLAP>
1216.225

> <PUBCHEM_SHAPE_VOLUME>
308.6

> <PUBCHEM_COORDINATE_TYPE>
2
5
10

$$$$
5926218
  -OEChem-11282412143D

 26 27  0     0  0  0  0  0  0999 V2000
    4.2981    2.6801    0.1627 Cl  0  0  0  0  0  0  0  0  0  0  0  0
    4.2666   -2.7163    0.0951 Cl  0  0  0  0  0  0  0  0  0  0  0  0
   -4.4818   -1.2385    0.4069 N   0  0  0  0  0  0  0  0  0  0  0  0
   -0.3031    0.0754   -2.7636 N   0  0  0  0  0  0  0  0  0  0  0  0
    1.3536   -0.0061    0.5071 C   0  0  0  0  0  0  0  0  0  0  0  0
   -0.0894   -0.0003    0.6923 C   0  0  0  0  0  0  0  0  0  0  0  0
   -2.4813    0.0237    0.0189 C   0  0  0  0  0  0  0  0  0  0  0  0
   -1.0360    0.0272   -0.2799 C   0  0  0  0  0  0  0  0  0  0  0  0
    2.0385   -1.2167    0.4024 C   0  0  0  0  0  0  0  0  0  0  0  0
    2.0522    1.1990    0.4333 C   0  0  0  0  0  0  0  0  0  0  0  0
    3.4356    1.1935    0.2548 C   0  0  0  0  0  0  0  0  0  0  0  0
    3.4219   -1.2222    0.2239 C   0  0  0  0  0  0  0  0  0  0  0  0
   -3.1577    1.2131    0.1830 C   0  0  0  0  0  0  0  0  0  0  0  0
    4.1204   -0.0171    0.1501 C   0  0  0  0  0  0  0  0  0  0  0  0
   -3.1596   -1.1648    0.1349 C   0  0  0  0  0  0  0  0  0  0  0  0
   -4.5191    1.1782    0.4637 C   0  0  0  0  0  0  0  0  0  0  0  0
   -5.1289   -0.0620    0.5645 C   0  0  0  0  0  0  0  0  0  0  0  0
   -0.6299    0.0539   -1.6501 C   0  0  0  0  0  0  0  0  0  0  0  0
   -0.4022   -0.0235    1.7353 H   0  0  0  0  0  0  0  0  0  0  0  0
    1.4946   -2.1576    0.4601 H   0  0  0  0  0  0  0  0  0  0  0  0
    1.5190    2.1443    0.5151 H   0  0  0  0  0  0  0  0  0  0  0  0
   -2.6534    2.1716    0.0984 H   0  0  0  0  0  0  0  0  0  0  0  0
    5.1993   -0.0216    0.0107 H   0  0  0  0  0  0  0  0  0  0  0  0
   -2.6686   -2.1253    0.0140 H   0  0  0  0  0  0  0  0  0  0  0  0
   -5.0851    2.0927    0.5994 H   0  0  0  0  0  0  0  0  0  0  0  0
   -6.1887   -0.1437    0.7820 H   0  0  0  0  0  0  0  0  0  0  0  0
  1 11  1  0  0  0  0
  2 12  1  0  0  0  0
  3 15  1  0  0  0  0
  3 17  2  0  0  0  0
  4 18  3  0  0  0  0
  5  6  1  0  0  0  0
  5  9  2  0  0  0  0
  5 10  1  0  0  0  0
  6  8  2  0  0  0  0
  6 19  1  0  0  0  0
  7  8  1  0  0  0  0
  7 13  1  0  0  0  0
  7 15  2  0  0  0  0
  8 18  1  0  0  0  0
  9 12  1  0  0  0  0
  9 20  1  0  0  0  0
 10 11  2  0  0  0  0
 10 21  1  0  0  0  0
 11 14  1  0  0  0  0
 12 14  2  0  0  0  0
 13 16  2  0  0  0  0
 13 22  1  0  0  0  0
 14 23  1  0  0  0  0
 15 24  1  0  0  0  0
 16 17  1  0  0  0  0
 16 25  1  0  0  0  0
 17 26  1  0  0  0  0
M  END
> <PUBCHEM_COMPOUND_CID>
5926218

> <PUBCHEM_CONFORMER_RMSD>
0.6

> <PUBCHEM_CONFORMER_DIVERSEORDER>
2
7
5
10
3
12
6
8
1
11
4
9

> <PUBCHEM_MMFF94_PARTIAL_CHARGES>
26
1 -0.18
10 -0.15
11 0.18
12 0.18
13 -0.15
14 -0.15
15 0.16
16 -0.15
17 0.16
18 0.49
19 0.15
2 -0.18
20 0.15
21 0.15
22 0.15
23 0.15
24 0.15
25 0.15
26 0.15
3 -0.62
4 -0.56
5 0.03
6 -0.18
7 0.03
8 0.04
9 -0.15

> <PUBCHEM_EFFECTIVE_ROTOR_COUNT>
2

> <PUBCHEM_PHARMACOPHORE_FEATURES>
4
1 3 acceptor
1 4 acceptor
6 3 7 13 15 16 17 rings
6 5 9 10 11 12 14 rings

> <PUBCHEM_HEAVY_ATOM_COUNT>
18

> <PUBCHEM_ATOM_DEF_STEREO_COUNT>
0

> <PUBCHEM_ATOM_UDEF_STEREO_COUNT>
0

> <PUBCHEM_BOND_DEF_STEREO_COUNT>
1

> <PUBCHEM_BOND_UDEF_STEREO_COUNT>
0

> <PUBCHEM_ISOTOPIC_ATOM_COUNT>
0

> <PUBCHEM_COMPONENT_COUNT>
1

> <PUBCHEM_CACTVS_TAUTO_COUNT>
1

> <PUBCHEM_CONFORMER_ID>
005A6D4A00000002

> <PUBCHEM_MMFF94_ENERGY>
50.8889

> <PUBCHEM_FEATURE_SELFOVERLAP>
20.297

> <PUBCHEM_SHAPE_FINGERPRINT>
11132069 177 17313097587858494669
11370993 144 18335422322897086233
11405975 8 18411419466838788763
12107183 9 17908992002145813809
12236239 1 17775566442483018432
12507560 40 18335420158307506517
12592029 89 17489593324737702143
12633257 1 18198911318520816395
12670546 56 18411696586966684545
12730499 353 18335994167933421786
12892183 10 18411139173031065321
13167823 11 18411980256540055219
13533116 47 18412823599328300171
13583140 156 18058446667820554913
13675066 3 17846487094026631290
13760787 19 18202002178507686678
13955234 65 18411698803507348650
14252887 29 17313104159111036880
14289901 80 18340204188812366507
14341114 176 18410582786024932553
15196674 1 18410856560003760777
15239154 128 18410576188654725737
15342168 16 18044095876742238740
15806764 133 17895747392699856260
15848702 151 18259703393350134846
16752209 62 15913057482002366480
17834072 33 18412544340264232435
17844677 252 18411427176342267945
1813 80 16732704952062309013
18186145 218 17968089794276663690
18222031 100 16587746443000169643
18785283 64 18260544563650072336
19422 9 18343581836919472586
19784866 34 18127121103815361712
20645477 70 18412546483695961034
21065198 48 18342178869110156513
21065198 57 18410293579869582227
21065199 12 18408886248009587481
22854114 59 18113615715811022321
23402539 116 16153422822762477066
23557571 272 17095517379590569340
23559900 14 18339357466117137050
31174 14 18261105258418368886
314173 85 16732984210988947061
3286 77 18261393300263132878
34934 24 17489298759159583232
4072396 5 16845291575629484315
4214541 1 18410856512827867689
449060 50 18334011730798289041
45790113 50 18412825755148421660
465052 167 17918277584333367935
474 4 18189898797865548488
5104073 3 18409168805270532753
5281201 14 18333732386246592188
6049 1 17822559505061427484
621550 34 18040425629629386292
633830 44 18410005520655466935
77779 3 18410856559914096465
7970288 3 17978509733326191074
8272917 22 18272940383872684598
90127 26 18113623352637447281
9709674 26 18335425702757241451
9971528 1 17822014206911987052

> <PUBCHEM_SHAPE_MULTIPOLES>
364.21
10.79
2.14
1.21
5.11
0.01
1.13
0
-2.52
-3.47
-0.27
0.33
0.02
0

> <PUBCHEM_SHAPE_SELFOVERLAP>
766.955

> <PUBCHEM_SHAPE_VOLUME>
204.1

> <PUBCHEM_COORDINATE_TYPE>
2
5
10

$$$$
25230468
  -OEChem-11282412143D

 69 72  0     0  0  0  0  0  0999 V2000
   -6.3974    0.0927    0.0144 O   0  0  0  0  0  0  0  0  0  0  0  0
    2.6498    3.0000    0.0258 O   0  0  0  0  0  0  0  0  0  0  0  0
   -1.6355   -0.1790   -0.0240 N   0  0  0  0  0  0  0  0  0  0  0  0
    1.9360    0.7612   -0.0482 N   0  0  0  0  0  0  0  0  0  0  0  0
    5.3836    2.1958    0.0156 N   0  0  0  0  0  0  0  0  0  0  0  0
    4.6594    0.0971   -0.0348 N   0  0  0  0  0  0  0  0  0  0  0  0
    8.9332    2.2699    0.0519 N   0  0  0  0  0  0  0  0  0  0  0  0
   -3.6952    1.1372    0.0019 C   0  0  0  0  0  0  0  0  0  0  0  0
   -5.8372    0.5393    1.2543 C   0  0  0  0  0  0  0  0  0  0  0  0
   -5.8551    0.5559   -1.2272 C   0  0  0  0  0  0  0  0  0  0  0  0
   -4.2990    0.4797    1.2495 C   0  0  0  0  0  0  0  0  0  0  0  0
   -4.3171    0.4965   -1.2455 C   0  0  0  0  0  0  0  0  0  0  0  0
   -2.1778    1.0592   -0.0101 C   0  0  0  0  0  0  0  0  0  0  0  0
    1.7002   -4.1749    0.0018 C   0  0  0  0  0  0  0  0  0  0  0  0
   -6.3626    1.9273    1.6438 C   0  0  0  0  0  0  0  0  0  0  0  0
   -6.3636   -0.4568    2.3037 C   0  0  0  0  0  0  0  0  0  0  0  0
   -6.3967   -0.4262   -2.2821 C   0  0  0  0  0  0  0  0  0  0  0  0
   -6.3859    1.9489   -1.5906 C   0  0  0  0  0  0  0  0  0  0  0  0
    0.7863   -3.7862    1.1825 C   0  0  0  0  0  0  0  0  0  0  0  0
    1.0792   -3.6427   -1.3109 C   0  0  0  0  0  0  0  0  0  0  0  0
    0.5532   -2.2732    1.2803 C   0  0  0  0  0  0  0  0  0  0  0  0
    0.2692   -1.6187   -0.0519 C   0  0  0  0  0  0  0  0  0  0  0  0
   -0.2852   -0.2430   -0.0367 C   0  0  0  0  0  0  0  0  0  0  0  0
   -1.4374    2.2304   -0.0081 C   0  0  0  0  0  0  0  0  0  0  0  0
    0.5171   -2.2515   -1.2144 C   0  0  0  0  0  0  0  0  0  0  0  0
    3.1182   -3.5997    0.1957 C   0  0  0  0  0  0  0  0  0  0  0  0
    1.8131   -5.7078   -0.0727 C   0  0  0  0  0  0  0  0  0  0  0  0
    0.5439    0.8671   -0.0363 C   0  0  0  0  0  0  0  0  0  0  0  0
   -0.0511    2.1238   -0.0216 C   0  0  0  0  0  0  0  0  0  0  0  0
    2.8792    1.7961   -0.0176 C   0  0  0  0  0  0  0  0  0  0  0  0
    4.3007    1.3616   -0.0124 C   0  0  0  0  0  0  0  0  0  0  0  0
    6.5039    1.4135    0.0109 C   0  0  0  0  0  0  0  0  0  0  0  0
    6.0315    0.1226   -0.0204 C   0  0  0  0  0  0  0  0  0  0  0  0
    7.8389    1.8841    0.0334 C   0  0  0  0  0  0  0  0  0  0  0  0
   -3.9678    2.1990    0.0111 H   0  0  0  0  0  0  0  0  0  0  0  0
   -3.9837   -0.5732    1.2718 H   0  0  0  0  0  0  0  0  0  0  0  0
   -3.8941    0.9400    2.1601 H   0  0  0  0  0  0  0  0  0  0  0  0
   -3.9255    0.9691   -2.1556 H   0  0  0  0  0  0  0  0  0  0  0  0
   -4.0022   -0.5560   -1.2865 H   0  0  0  0  0  0  0  0  0  0  0  0
   -7.4433    1.9961    1.4767 H   0  0  0  0  0  0  0  0  0  0  0  0
   -5.8993    2.7302    1.0685 H   0  0  0  0  0  0  0  0  0  0  0  0
   -6.1606    2.1462    2.6984 H   0  0  0  0  0  0  0  0  0  0  0  0
   -7.4595   -0.4442    2.3386 H   0  0  0  0  0  0  0  0  0  0  0  0
   -5.9818   -0.2329    3.3054 H   0  0  0  0  0  0  0  0  0  0  0  0
   -6.0770   -1.4832    2.0459 H   0  0  0  0  0  0  0  0  0  0  0  0
   -7.4929   -0.4132   -2.3011 H   0  0  0  0  0  0  0  0  0  0  0  0
   -6.1065   -1.4559   -2.0422 H   0  0  0  0  0  0  0  0  0  0  0  0
   -6.0292   -0.1889   -3.2861 H   0  0  0  0  0  0  0  0  0  0  0  0
   -7.4640    2.0154   -1.4071 H   0  0  0  0  0  0  0  0  0  0  0  0
   -6.1989    2.1817   -2.6451 H   0  0  0  0  0  0  0  0  0  0  0  0
   -5.9144    2.7441   -1.0115 H   0  0  0  0  0  0  0  0  0  0  0  0
    1.2048   -4.1470    2.1304 H   0  0  0  0  0  0  0  0  0  0  0  0
   -0.1871   -4.2831    1.0673 H   0  0  0  0  0  0  0  0  0  0  0  0
    0.2619   -4.2994   -1.6364 H   0  0  0  0  0  0  0  0  0  0  0  0
    1.8306   -3.6647   -2.1103 H   0  0  0  0  0  0  0  0  0  0  0  0
    1.4290   -1.7940    1.7348 H   0  0  0  0  0  0  0  0  0  0  0  0
   -0.2871   -2.1015    1.9648 H   0  0  0  0  0  0  0  0  0  0  0  0
   -1.9080    3.2077    0.0019 H   0  0  0  0  0  0  0  0  0  0  0  0
    0.2902   -1.7593   -2.1574 H   0  0  0  0  0  0  0  0  0  0  0  0
    3.7884   -3.9315   -0.6057 H   0  0  0  0  0  0  0  0  0  0  0  0
    3.1291   -2.5058    0.1921 H   0  0  0  0  0  0  0  0  0  0  0  0
    3.5495   -3.9330    1.1464 H   0  0  0  0  0  0  0  0  0  0  0  0
    0.8288   -6.1735   -0.1954 H   0  0  0  0  0  0  0  0  0  0  0  0
    2.4355   -6.0176   -0.9198 H   0  0  0  0  0  0  0  0  0  0  0  0
    2.2614   -6.1159    0.8402 H   0  0  0  0  0  0  0  0  0  0  0  0
    0.4881    3.0599   -0.0253 H   0  0  0  0  0  0  0  0  0  0  0  0
    2.3129   -0.1829   -0.0695 H   0  0  0  0  0  0  0  0  0  0  0  0
    5.3575    3.2069    0.0360 H   0  0  0  0  0  0  0  0  0  0  0  0
    6.6048   -0.7937   -0.0335 H   0  0  0  0  0  0  0  0  0  0  0  0
  1  9  1  0  0  0  0
  1 10  1  0  0  0  0
  2 30  2  0  0  0  0
  3 13  2  0  0  0  0
  3 23  1  0  0  0  0
  4 28  1  0  0  0  0
  4 30  1  0  0  0  0
  4 67  1  0  0  0  0
  5 31  1  0  0  0  0
  5 32  1  0  0  0  0
  5 68  1  0  0  0  0
  6 31  2  0  0  0  0
  6 33  1  0  0  0  0
  7 34  3  0  0  0  0
  8 11  1  0  0  0  0
  8 12  1  0  0  0  0
  8 13  1  0  0  0  0
  8 35  1  0  0  0  0
  9 11  1  0  0  0  0
  9 15  1  0  0  0  0
  9 16  1  0  0  0  0
 10 12  1  0  0  0  0
 10 17  1  0  0  0  0
 10 18  1  0  0  0  0
 11 36  1  0  0  0  0
 11 37  1  0  0  0  0
 12 38  1  0  0  0  0
 12 39  1  0  0  0  0
 13 24  1  0  0  0  0
 14 19  1  0  0  0  0
 14 20  1  0  0  0  0
 14 26  1  0  0  0  0
 14 27  1  0  0  0  0
 15 40  1  0  0  0  0
 15 41  1  0  0  0  0
 15 42  1  0  0  0  0
 16 43  1  0  0  0  0
 16 44  1  0  0  0  0
 16 45  1  0  0  0  0
 17 46  1  0  0  0  0
 17 47  1  0  0  0  0
 17 48  1  0  0  0  0
 18 49  1  0  0  0  0
 18 50  1  0  0  0  0
 18 51  1  0  0  0  0
 19 21  1  0  0  0  0
 19 52  1  0  0  0  0
 19 53  1  0  0  0  0
 20 25  1  0  0  0  0
 20 54  1  0  0  0  0
 20 55  1  0  0  0  0
 21 22  1  0  0  0  0
 21 56  1  0  0  0  0
 21 57  1  0  0  0  0
 22 23  1  0  0  0  0
 22 25  2  0  0  0  0
 23 28  2  0  0  0  0
 24 29  2  0  0  0  0
 24 58  1  0  0  0  0
 25 59  1  0  0  0  0
 26 60  1  0  0  0  0
 26 61  1  0  0  0  0
 26 62  1  0  0  0  0
 27 63  1  0  0  0  0
 27 64  1  0  0  0  0
 27 65  1  0  0  0  0
 28 29  1  0  0  0  0
 29 66  1  0  0  0  0
 30 31  1  0  0  0  0
 32 33  2  0  0  0  0
 32 34  1  0  0  0  0
 33 69  1  0  0  0  0
M  END
> <PUBCHEM_COMPOUND_CID>
25230468

> <PUBCHEM_CONFORMER_RMSD>
1

> <PUBCHEM_CONFORMER_DIVERSEORDER>
1
85
111
78
59
97
128
21
99
104
123
53
70
132
27
31
119
90
124
47
89
115
136
109
67
117
86
46
118
54
9
127
96
83
88
129
121
82
60
29
23
73
93
116
14
135
102
30
39
50
76
138
133
113
58
24
33
100
56
13
126
72
79
75
81
40
77
43
131
25
92
108
34
98
105
63
101
87
120
107
69
130
122
80
36
62
18
45
66
71
4
61
52
64
48
106
94
26
84
41
74
3
12
38
28
65
15
51
57
35
37
17
22
55
16
112
19
103
2
110
6
42
44
125
49
5
137
68
114
20
10
134
91
95
8
11
32
7

> <PUBCHEM_MMFF94_PARTIAL_CHARGES>
30
1 -0.56
10 0.28
13 0.17
2 -0.57
20 0.14
21 0.14
22 -0.17
23 0.34
24 -0.15
25 -0.29
28 0.12
29 -0.15
3 -0.62
30 0.71
31 0.1
32 -0.13
33 0.08
34 0.54
4 -0.55
5 0.03
58 0.15
59 0.15
6 -0.57
66 0.15
67 0.37
68 0.27
69 0.15
7 -0.56
8 0.14
9 0.28

> <PUBCHEM_EFFECTIVE_ROTOR_COUNT>
7

> <PUBCHEM_PHARMACOPHORE_FEATURES>
14
1 1 acceptor
1 2 acceptor
1 3 acceptor
1 4 donor
1 5 donor
1 7 acceptor
3 10 17 18 hydrophobe
3 14 26 27 hydrophobe
3 5 6 31 cation
3 9 15 16 hydrophobe
5 5 6 31 32 33 rings
6 1 8 9 10 11 12 rings
6 14 19 20 21 22 25 rings
6 3 13 23 24 28 29 rings

> <PUBCHEM_HEAVY_ATOM_COUNT>
34

> <PUBCHEM_ATOM_DEF_STEREO_COUNT>
0

> <PUBCHEM_ATOM_UDEF_STEREO_COUNT>
0

> <PUBCHEM_BOND_DEF_STEREO_COUNT>
0

> <PUBCHEM_BOND_UDEF_STEREO_COUNT>
0

> <PUBCHEM_ISOTOPIC_ATOM_COUNT>
0

> <PUBCHEM_COMPONENT_COUNT>
1

> <PUBCHEM_CACTVS_TAUTO_COUNT>
7

> <PUBCHEM_CONFORMER_ID>
0180FC8400000001

> <PUBCHEM_MMFF94_ENERGY>
93.3113

> <PUBCHEM_FEATURE_SELFOVERLAP>
71.047

> <PUBCHEM_SHAPE_FINGERPRINT>
10050765 1 18122626042403744125
10190206 1 18199176467958076918
102385 1 17905606597397128100
10369192 42 18187641418562090988
11007060 377 17988077932111909280
11135609 187 18410284809731408732
11135926 11 18410856560230626925
11136131 41 18262228933327359674
11421498 54 17774448187412501393
11445158 3 17677337258857936909
11488393 25 18265331703168227803
11578080 2 17315909962535100269
11719270 70 18408878529747608576
11991303 11 17969509379926722150
12058002 1 17388005017246862020
12440605 4 18053675672167640033
12522641 33 18410855456423980076
12597179 24 18261398861861121018
12838862 33 18338218454487899480
13540713 4 17898291602672471493
13540713 5 17914332373525697201
1361 2 18411697669435684078
13631057 29 18129092506968598615
14028597 1 17774734068883226568
14118638 360 18272928290384287973
15320294 125 18114722899621811890
15849732 13 17821727265138598316
15927050 60 18413389865060329750
16994733 274 16774082856012849288
17913733 40 18410866468588485859
21360443 120 18409445899734230070
23522609 53 17631461064186534563
23559900 14 18117554016955245883
249057 3 18335985380900631460
25019877 29 18410577305709785252
3178227 256 18409739481654386856
3411729 13 18341339885486973995
38695281 34 18412823594590331678
4017518 198 18413110589660340790
5265222 85 18263084469438028732
5385378 56 18339652148023116512
5758199 1 18272374178276121832
59755656 215 18336263461765754492
6371380 46 18270113638979650712
6376802 90 17822289021439023733
6669772 16 18411703175605207838
6679774 75 18189314871545198722

> <PUBCHEM_SHAPE_MULTIPOLES>
663.06
19.6
5.25
1.47
5.79
9.22
-0.02
-18.19
-0.25
8.37
-0.01
-3.88
0.37
0.07

> <PUBCHEM_SHAPE_SELFOVERLAP>
1412.425

> <PUBCHEM_SHAPE_VOLUME>
364.2

> <PUBCHEM_COORDINATE_TYPE>
2
5
10

$$$$
46701811
  -OEChem-11282412143D

 67 71  0     1  0  0  0  0  0999 V2000
   -5.2716   -1.4698   -1.3444 Cl  0  0  0  0  0  0  0  0  0  0  0  0
   -8.7749    2.2414   -3.0540 F   0  0  0  0  0  0  0  0  0  0  0  0
    8.1035    3.9443    0.9694 O   0  0  0  0  0  0  0  0  0  0  0  0
    5.8586    0.7135   -0.4747 O   0  0  0  0  0  0  0  0  0  0  0  0
   -5.8929    0.3400    0.9742 O   0  0  0  0  0  0  0  0  0  0  0  0
    9.1187    2.2917   -1.1107 N   0  0  0  0  0  0  0  0  0  0  0  0
    5.4019   -0.5975   -0.6654 N   0  0  0  0  0  0  0  0  0  0  0  0
   -0.7309   -1.7164    0.9973 N   0  0  0  0  0  0  0  0  0  0  0  0
    0.8406   -5.2816   -0.3986 N   0  0  0  0  0  0  0  0  0  0  0  0
   -0.9905   -4.0024    0.5056 N   0  0  0  0  0  0  0  0  0  0  0  0
    7.7184    2.1994   -0.6770 C   0  0  2  0  0  0  0  0  0  0  0  0
    7.6054    2.6161    0.7915 C   0  0  0  0  0  0  0  0  0  0  0  0
    9.6355    3.6420   -0.8834 C   0  0  0  0  0  0  0  0  0  0  0  0
    7.2136    0.7750   -0.8815 C   0  0  0  0  0  0  0  0  0  0  0  0
    9.4754    4.0285    0.5814 C   0  0  0  0  0  0  0  0  0  0  0  0
    1.1470   -2.9535    0.0887 C   0  0  0  0  0  0  0  0  0  0  0  0
    3.2925   -1.9109   -0.3324 C   0  0  0  0  0  0  0  0  0  0  0  0
    4.1647   -0.7295   -0.3132 C   0  0  0  0  0  0  0  0  0  0  0  0
    1.9765   -1.8188    0.1097 C   0  0  0  0  0  0  0  0  0  0  0  0
    1.6254   -4.1901   -0.3742 C   0  0  0  0  0  0  0  0  0  0  0  0
   -0.1775   -2.9292    0.5165 C   0  0  0  0  0  0  0  0  0  0  0  0
    3.7777   -3.1299   -0.7931 C   0  0  0  0  0  0  0  0  0  0  0  0
    2.9464   -4.2537   -0.8108 C   0  0  0  0  0  0  0  0  0  0  0  0
   -2.0362   -1.1999    0.9839 C   0  0  0  0  0  0  0  0  0  0  0  0
   -2.9124   -1.5436   -0.0457 C   0  0  0  0  0  0  0  0  0  0  0  0
   -2.4574   -0.3438    2.0016 C   0  0  0  0  0  0  0  0  0  0  0  0
   -4.6306   -0.1744    0.9596 C   0  0  0  0  0  0  0  0  0  0  0  0
   -4.2096   -1.0307   -0.0577 C   0  0  0  0  0  0  0  0  0  0  0  0
   -3.7544    0.1692    1.9893 C   0  0  0  0  0  0  0  0  0  0  0  0
   -0.4244   -5.1285    0.0426 C   0  0  0  0  0  0  0  0  0  0  0  0
   -6.0131    1.7604    0.9359 C   0  0  0  0  0  0  0  0  0  0  0  0
    3.6329    0.5194    0.1698 C   0  0  0  0  0  0  0  0  0  0  0  0
   -7.3097    2.1246    0.2742 C   0  0  0  0  0  0  0  0  0  0  0  0
   -7.4426    2.0108   -1.1097 C   0  0  0  0  0  0  0  0  0  0  0  0
   -8.3819    2.5778    1.0430 C   0  0  0  0  0  0  0  0  0  0  0  0
   -8.6477    2.3499   -1.7250 C   0  0  0  0  0  0  0  0  0  0  0  0
   -9.5868    2.9171    0.4277 C   0  0  0  0  0  0  0  0  0  0  0  0
   -9.7200    2.8029   -0.9562 C   0  0  0  0  0  0  0  0  0  0  0  0
    3.1872    1.5585    0.5754 C   0  0  0  0  0  0  0  0  0  0  0  0
    2.6431    2.8219    1.0707 C   0  0  0  0  0  0  0  0  0  0  0  0
    7.1090    2.8863   -1.2799 H   0  0  0  0  0  0  0  0  0  0  0  0
    6.5589    2.6239    1.1136 H   0  0  0  0  0  0  0  0  0  0  0  0
    8.1486    1.9335    1.4573 H   0  0  0  0  0  0  0  0  0  0  0  0
    9.1881    2.0624   -2.1017 H   0  0  0  0  0  0  0  0  0  0  0  0
   10.6930    3.6800   -1.1638 H   0  0  0  0  0  0  0  0  0  0  0  0
    9.0946    4.3510   -1.5218 H   0  0  0  0  0  0  0  0  0  0  0  0
    7.8047    0.0628   -0.2914 H   0  0  0  0  0  0  0  0  0  0  0  0
    7.2858    0.4942   -1.9398 H   0  0  0  0  0  0  0  0  0  0  0  0
   10.0805    3.3906    1.2371 H   0  0  0  0  0  0  0  0  0  0  0  0
    9.8013    5.0626    0.7325 H   0  0  0  0  0  0  0  0  0  0  0  0
    1.5817   -0.8720    0.4620 H   0  0  0  0  0  0  0  0  0  0  0  0
    4.8014   -3.2302   -1.1442 H   0  0  0  0  0  0  0  0  0  0  0  0
    3.3503   -5.1961   -1.1761 H   0  0  0  0  0  0  0  0  0  0  0  0
   -0.1157   -1.2325    1.6457 H   0  0  0  0  0  0  0  0  0  0  0  0
   -2.5887   -2.1988   -0.8512 H   0  0  0  0  0  0  0  0  0  0  0  0
   -1.7860   -0.0703    2.8116 H   0  0  0  0  0  0  0  0  0  0  0  0
   -4.0697    0.8268    2.7947 H   0  0  0  0  0  0  0  0  0  0  0  0
   -1.0516   -6.0114    0.0202 H   0  0  0  0  0  0  0  0  0  0  0  0
   -5.9778    2.1494    1.9605 H   0  0  0  0  0  0  0  0  0  0  0  0
   -5.1848    2.2179    0.3778 H   0  0  0  0  0  0  0  0  0  0  0  0
   -6.6137    1.6606   -1.7188 H   0  0  0  0  0  0  0  0  0  0  0  0
   -8.2932    2.6699    2.1221 H   0  0  0  0  0  0  0  0  0  0  0  0
  -10.4219    3.2697    1.0260 H   0  0  0  0  0  0  0  0  0  0  0  0
  -10.6581    3.0670   -1.4355 H   0  0  0  0  0  0  0  0  0  0  0  0
    1.9371    2.6476    1.8882 H   0  0  0  0  0  0  0  0  0  0  0  0
    3.4423    3.4694    1.4440 H   0  0  0  0  0  0  0  0  0  0  0  0
    2.1161    3.3571    0.2752 H   0  0  0  0  0  0  0  0  0  0  0  0
  1 28  1  0  0  0  0
  2 36  1  0  0  0  0
  3 12  1  0  0  0  0
  3 15  1  0  0  0  0
  4  7  1  0  0  0  0
  4 14  1  0  0  0  0
  5 27  1  0  0  0  0
  5 31  1  0  0  0  0
  6 11  1  0  0  0  0
  6 13  1  0  0  0  0
  6 44  1  0  0  0  0
  7 18  2  0  0  0  0
  8 21  1  0  0  0  0
  8 24  1  0  0  0  0
  8 54  1  0  0  0  0
  9 20  1  0  0  0  0
  9 30  2  0  0  0  0
 10 21  2  0  0  0  0
 10 30  1  0  0  0  0
 11 12  1  0  0  0  0
 11 14  1  0  0  0  0
 11 41  1  0  0  0  0
 12 42  1  0  0  0  0
 12 43  1  0  0  0  0
 13 15  1  0  0  0  0
 13 45  1  0  0  0  0
 13 46  1  0  0  0  0
 14 47  1  0  0  0  0
 14 48  1  0  0  0  0
 15 49  1  0  0  0  0
 15 50  1  0  0  0  0
 16 19  1  0  0  0  0
 16 20  2  0  0  0  0
 16 21  1  0  0  0  0
 17 18  1  0  0  0  0
 17 19  2  0  0  0  0
 17 22  1  0  0  0  0
 18 32  1  0  0  0  0
 19 51  1  0  0  0  0
 20 23  1  0  0  0  0
 22 23  2  0  0  0  0
 22 52  1  0  0  0  0
 23 53  1  0  0  0  0
 24 25  2  0  0  0  0
 24 26  1  0  0  0  0
 25 28  1  0  0  0  0
 25 55  1  0  0  0  0
 26 29  2  0  0  0  0
 26 56  1  0  0  0  0
 27 28  2  0  0  0  0
 27 29  1  0  0  0  0
 29 57  1  0  0  0  0
 30 58  1  0  0  0  0
 31 33  1  0  0  0  0
 31 59  1  0  0  0  0
 31 60  1  0  0  0  0
 32 39  3  0  0  0  0
 33 34  2  0  0  0  0
 33 35  1  0  0  0  0
 34 36  1  0  0  0  0
 34 61  1  0  0  0  0
 35 37  2  0  0  0  0
 35 62  1  0  0  0  0
 36 38  2  0  0  0  0
 37 38  1  0  0  0  0
 37 63  1  0  0  0  0
 38 64  1  0  0  0  0
 39 40  1  0  0  0  0
 40 65  1  0  0  0  0
 40 66  1  0  0  0  0
 40 67  1  0  0  0  0
M  END
> <PUBCHEM_COMPOUND_CID>
46701811

> <PUBCHEM_CONFORMER_RMSD>
1.4

> <PUBCHEM_CONFORMER_DIVERSEORDER>
1
86
109
33
34
70
20
26
89
87
16
81
54
73
99
60
40
67
31
50
38
80
45
43
11
49
96
82
91
107
19
47
48
59
18
77
72
102
90
75
24
21
100
53
110
88
83
52
58
104
66
56
30
98
69
5
28
7
103
106
14
71
92
85
55
29
68
79
22
62
44
37
10
23
41
17
76
61
94
93
57
101
25
108
32
65
42
105
9
46
15
84
39
35
36
8
51
2
13
4
97
78
6
95
63
27
12
64
3
74

> <PUBCHEM_MMFF94_PARTIAL_CHARGES>
52
1 -0.18
10 -0.62
11 0.27
12 0.28
13 0.27
14 0.28
15 0.28
17 0.09
18 0.47
19 -0.15
2 -0.19
20 0.31
21 0.41
22 -0.15
23 -0.15
24 0.1
25 -0.15
26 -0.15
27 0.08
28 0.18
29 -0.15
3 -0.56
30 0.47
31 0.42
32 -0.1
33 -0.14
34 -0.15
35 -0.15
36 0.19
37 -0.15
38 -0.15
39 -0.2
4 -0.22
40 0.2
44 0.36
5 -0.36
51 0.15
52 0.15
53 0.15
54 0.4
55 0.15
56 0.15
57 0.15
58 0.15
6 -0.9
61 0.15
62 0.15
63 0.15
64 0.15
7 -0.51
8 -0.6
9 -0.62

> <PUBCHEM_EFFECTIVE_ROTOR_COUNT>
10.2

> <PUBCHEM_PHARMACOPHORE_FEATURES>
14
1 3 acceptor
1 40 hydrophobe
1 5 acceptor
1 6 cation
1 6 donor
1 7 acceptor
1 8 donor
3 8 10 21 cation
3 9 10 30 cation
6 16 17 19 20 22 23 rings
6 24 25 26 27 28 29 rings
6 3 6 11 12 13 15 rings
6 33 34 35 36 37 38 rings
6 9 10 16 20 21 30 rings

> <PUBCHEM_HEAVY_ATOM_COUNT>
40

> <PUBCHEM_ATOM_DEF_STEREO_COUNT>
1

> <PUBCHEM_ATOM_UDEF_STEREO_COUNT>
0

> <PUBCHEM_BOND_DEF_STEREO_COUNT>
1

> <PUBCHEM_BOND_UDEF_STEREO_COUNT>
0

> <PUBCHEM_ISOTOPIC_ATOM_COUNT>
0

> <PUBCHEM_COMPONENT_COUNT>
1

> <PUBCHEM_CACTVS_TAUTO_COUNT>
4

> <PUBCHEM_CONFORMER_ID>
02C89CF300000001

> <PUBCHEM_MMFF94_ENERGY>
125.8109

> <PUBCHEM_FEATURE_SELFOVERLAP>
71.219

> <PUBCHEM_SHAPE_FINGERPRINT>
10280341 67 18410007771619510152
10533779 1 18408880750441717420
11135609 127 18339078181484569987
11135609 187 18412267246175730811
11421887 103 18335693970836968452
11476731 99 17536017871665908213
12013929 27 11167677482000826232
12124843 1 17917998290983610286
12522641 68 18130229354077718326
13782708 43 12391213969792503843
14359421 15 12679467447771812301
14415360 78 18340762741062577004
14747282 540 18259993665127627516
15131766 46 18411413991183156823
15150948 74 18408322168206383261
15276724 80 18122059798705688301
15350500 55 18260268559575596992
15439362 3 18411985762703998482
15455200 26 17914320524123366024
15685185 35 18411138052624745973
15890870 6 18411705387244027888
20609170 114 17604720014298393243
21033648 29 17603876576504090259
21133410 38 17914638088696128673
21362267 2 18043243549853471997
21772523 7 18114729436045364773
23516275 100 18260547771163436157
23522609 53 17272303340990643411
23523788 1 12613022873952557146
23569914 2 16735770270843898773
25242607 90 8214140716399534580
3918712 181 18413390951829006352
3991529 202 9007051392972700437
4112364 45 17749944462512247786
4330586 98 12895070765162559288
4403749 210 18337116764662942811
44575985 391 18411702075877750200
4516262 110 18411134694018316933
5372103 7 18407762521219137369
6327066 14 18410862079216636154

> <PUBCHEM_SHAPE_MULTIPOLES>
775.26
33.86
7.26
1.54
7.57
5.78
-0.33
-65.29
-10.9
-8.8
-0.68
2.98
-0.88
2.55

> <PUBCHEM_SHAPE_SELFOVERLAP>
1671.216

> <PUBCHEM_SHAPE_VOLUME>
425.4

> <PUBCHEM_COORDINATE_TYPE>
2
5
10

$$$$
50914062
  -OEChem-11282412143D

 41 44  0     1  0  0  0  0  0999 V2000
    1.6767   -1.5594   -0.2173 O   0  0  0  0  0  0  0  0  0  0  0  0
    2.5338    0.5754   -0.0415 N   0  0  0  0  0  0  0  0  0  0  0  0
   -0.6215    0.5653   -0.9753 N   0  0  0  0  0  0  0  0  0  0  0  0
   -2.4344   -0.6782   -1.8448 N   0  0  0  0  0  0  0  0  0  0  0  0
   -4.2773   -0.3499    1.7357 N   0  0  0  0  0  0  0  0  0  0  0  0
   -4.3999   -1.2146   -0.5118 N   0  0  0  0  0  0  0  0  0  0  0  0
    3.8320   -3.9232    0.7443 N   0  0  0  0  0  0  0  0  0  0  0  0
    1.4903    1.4955   -0.4930 C   0  0  1  0  0  0  0  0  0  0  0  0
    2.3454    2.6134    0.1394 C   0  0  2  0  0  0  0  0  0  0  0  0
    1.3089    1.4843   -2.0029 C   0  0  0  0  0  0  0  0  0  0  0  0
    3.5054    1.6188    0.2390 C   0  0  0  0  0  0  0  0  0  0  0  0
    0.1165    1.2198    0.1068 C   0  0  0  0  0  0  0  0  0  0  0  0
    0.1445    0.5158   -2.2198 C   0  0  0  0  0  0  0  0  0  0  0  0
    1.9091    3.1947    1.4645 C   0  0  0  0  0  0  0  0  0  0  0  0
    2.5954   -0.7910    0.0609 C   0  0  0  0  0  0  0  0  0  0  0  0
   -1.8628   -0.0156   -0.8126 C   0  0  0  0  0  0  0  0  0  0  0  0
    3.9142   -1.3125    0.5682 C   0  0  0  0  0  0  0  0  0  0  0  0
   -2.5361    0.0721    0.4049 C   0  0  0  0  0  0  0  0  0  0  0  0
   -3.7799   -0.5436    0.4744 C   0  0  0  0  0  0  0  0  0  0  0  0
   -2.2900    0.6515    1.6759 C   0  0  0  0  0  0  0  0  0  0  0  0
    3.8599   -2.7659    0.6632 C   0  0  0  0  0  0  0  0  0  0  0  0
   -3.6509   -1.2291   -1.6333 C   0  0  0  0  0  0  0  0  0  0  0  0
   -3.3792    0.3763    2.4751 C   0  0  0  0  0  0  0  0  0  0  0  0
    2.5626    3.4328   -0.5597 H   0  0  0  0  0  0  0  0  0  0  0  0
    1.0116    2.4824   -2.3482 H   0  0  0  0  0  0  0  0  0  0  0  0
    2.2022    1.1900   -2.5631 H   0  0  0  0  0  0  0  0  0  0  0  0
    4.2642    1.7051   -0.5444 H   0  0  0  0  0  0  0  0  0  0  0  0
    3.9831    1.5373    1.2186 H   0  0  0  0  0  0  0  0  0  0  0  0
    0.2206    0.5796    0.9879 H   0  0  0  0  0  0  0  0  0  0  0  0
   -0.3808    2.1636    0.3528 H   0  0  0  0  0  0  0  0  0  0  0  0
    0.5138   -0.5012   -2.3904 H   0  0  0  0  0  0  0  0  0  0  0  0
   -0.4520    0.8201   -3.0867 H   0  0  0  0  0  0  0  0  0  0  0  0
    2.6951    3.8345    1.8800 H   0  0  0  0  0  0  0  0  0  0  0  0
    1.6887    2.4181    2.2045 H   0  0  0  0  0  0  0  0  0  0  0  0
    1.0154    3.8153    1.3441 H   0  0  0  0  0  0  0  0  0  0  0  0
    4.1172   -0.8794    1.5531 H   0  0  0  0  0  0  0  0  0  0  0  0
    4.7091   -1.0034   -0.1185 H   0  0  0  0  0  0  0  0  0  0  0  0
   -1.4564    1.2298    2.0397 H   0  0  0  0  0  0  0  0  0  0  0  0
   -4.0815   -1.7528   -2.4799 H   0  0  0  0  0  0  0  0  0  0  0  0
   -5.1691   -0.6889    2.0691 H   0  0  0  0  0  0  0  0  0  0  0  0
   -3.5965    0.6359    3.5017 H   0  0  0  0  0  0  0  0  0  0  0  0
  1 15  2  0  0  0  0
  2  8  1  0  0  0  0
  2 11  1  0  0  0  0
  2 15  1  0  0  0  0
  3 12  1  0  0  0  0
  3 13  1  0  0  0  0
  3 16  1  0  0  0  0
  4 16  2  0  0  0  0
  4 22  1  0  0  0  0
  5 19  1  0  0  0  0
  5 23  1  0  0  0  0
  5 40  1  0  0  0  0
  6 19  1  0  0  0  0
  6 22  2  0  0  0  0
  7 21  3  0  0  0  0
  8  9  1  0  0  0  0
  8 10  1  0  0  0  0
  8 12  1  0  0  0  0
  9 11  1  0  0  0  0
  9 14  1  0  0  0  0
  9 24  1  0  0  0  0
 10 13  1  0  0  0  0
 10 25  1  0  0  0  0
 10 26  1  0  0  0  0
 11 27  1  0  0  0  0
 11 28  1  0  0  0  0
 12 29  1  0  0  0  0
 12 30  1  0  0  0  0
 13 31  1  0  0  0  0
 13 32  1  0  0  0  0
 14 33  1  0  0  0  0
 14 34  1  0  0  0  0
 14 35  1  0  0  0  0
 15 17  1  0  0  0  0
 16 18  1  0  0  0  0
 17 21  1  0  0  0  0
 17 36  1  0  0  0  0
 17 37  1  0  0  0  0
 18 19  2  0  0  0  0
 18 20  1  0  0  0  0
 20 23  2  0  0  0  0
 20 38  1  0  0  0  0
 22 39  1  0  0  0  0
 23 41  1  0  0  0  0
M  END
> <PUBCHEM_COMPOUND_CID>
50914062

> <PUBCHEM_CONFORMER_RMSD>
0.8

> <PUBCHEM_CONFORMER_DIVERSEORDER>
1
33
44
2
4
41
28
40
6
25
29
7
19
20
34
38
10
5
48
8
22
9
36
49
47
18
32
12
26
27
35
15
3
39
42
11
31
23
14
45
24
46
30
37
43
21
13
16
17

> <PUBCHEM_MMFF94_PARTIAL_CHARGES>
23
1 -0.57
11 0.22
12 0.37
13 0.37
15 0.57
16 0.41
17 0.26
19 0.11
2 -0.51
20 -0.15
21 0.36
22 0.47
23 -0.3
3 -0.84
38 0.15
39 0.15
4 -0.62
40 0.27
41 0.15
5 0.03
6 -0.57
7 -0.56
8 0.22

> <PUBCHEM_EFFECTIVE_ROTOR_COUNT>
4.4

> <PUBCHEM_PHARMACOPHORE_FEATURES>
10
1 1 acceptor
1 5 cation
1 5 donor
1 7 acceptor
3 3 4 16 cation
3 4 6 22 cation
4 2 8 9 11 rings
5 3 8 10 12 13 rings
5 5 18 19 20 23 rings
6 4 6 16 18 19 22 rings

> <PUBCHEM_HEAVY_ATOM_COUNT>
23

> <PUBCHEM_ATOM_DEF_STEREO_COUNT>
2

> <PUBCHEM_ATOM_UDEF_STEREO_COUNT>
0

> <PUBCHEM_BOND_DEF_STEREO_COUNT>
0

> <PUBCHEM_BOND_UDEF_STEREO_COUNT>
0

> <PUBCHEM_ISOTOPIC_ATOM_COUNT>
0

> <PUBCHEM_COMPONENT_COUNT>
1

> <PUBCHEM_CACTVS_TAUTO_COUNT>
3

> <PUBCHEM_CONFORMER_ID>
0308E30E00000001

> <PUBCHEM_MMFF94_ENERGY>
63.2458

> <PUBCHEM_FEATURE_SELFOVERLAP>
51.029

> <PUBCHEM_SHAPE_FINGERPRINT>
10064457 181 18120671372410625744
10366900 7 18265902538745070512
10928967 22 18194682562515732238
11578080 2 17915148344039368425
11595378 159 17346593114429574577
12107183 9 18125727781737428793
12363563 72 17896035456030024998
12553582 1 18268996393157518366
12596602 18 17632006546460464002
12623949 98 16519950650716215331
12633257 1 17988088789846807091
13103583 49 17916868993847554010
13533116 47 18410293649021926451
13544653 18 18261110708610742990
13583140 156 18269004231620351473
13965767 371 17631749204420310160
14386348 63 17312819407079463121
14739800 52 16700877479552668608
14787075 74 16546065348470539541
14844126 61 17544454376871653946
15142526 21 17481416501686234328
15375462 189 18342181063806977944
16752209 62 14490465435257521137
17357779 13 17822290133033725930
173720 79 17917439683975153209
1813 80 18267035968119739678
18681886 176 16199598033516267832
20603629 256 18411692201736354218
20645477 70 18113887295209326846
20715895 44 17558285241454866129
21421861 104 18199768984560990624
21427221 339 17988652860744488170
23557571 272 16733251413546909276
23559900 14 16009010796891474056
3737641 26 18053671266032379358
392239 28 17338432719453661147
394222 165 17558548260418677920
458136 41 18190747616768517140
474 4 17839176655693557201
484985 159 17544469761338967234
5486654 36 18045224838670015434
7097593 13 18130511846528043210
7288768 16 16907189991486338664
7615 1 17989484160423628317
7808743 9 14763486322917816488
90316 7 17846222133415757201

> <PUBCHEM_SHAPE_MULTIPOLES>
437.57
8.49
3.11
2.05
3.49
1.32
-0.17
5
2.82
-5.78
1.13
1.91
-0.4
-1.45

> <PUBCHEM_SHAPE_SELFOVERLAP>
958.394

> <PUBCHEM_SHAPE_VOLUME>
235.2

> <PUBCHEM_COORDINATE_TYPE>
2
5
10

$$$$
56644522
  -OEChem-11282412143D

 61 65  0     0  0  0  0  0  0999 V2000
    6.2124   -0.4526    0.1431 O   0  0  0  0  0  0  0  0  0  0  0  0
    3.5162   -1.5395    0.7573 O   0  0  0  0  0  0  0  0  0  0  0  0
   -2.7425   -3.7506    0.2046 O   0  0  0  0  0  0  0  0  0  0  0  0
   -3.6152    1.8758    0.0769 N   0  0  0  0  0  0  0  0  0  0  0  0
   -6.4264    1.3849    0.2019 N   0  0  0  0  0  0  0  0  0  0  0  0
    1.8878    2.6275   -0.6333 N   0  0  0  0  0  0  0  0  0  0  0  0
    4.2039    2.3344   -0.7125 N   0  0  0  0  0  0  0  0  0  0  0  0
    2.7192    0.5545    0.0570 N   0  0  0  0  0  0  0  0  0  0  0  0
   -0.6424   -3.4119   -0.8023 N   0  0  0  0  0  0  0  0  0  0  0  0
   -4.1149    0.5945    0.5849 C   0  0  0  0  0  0  0  0  0  0  0  0
   -4.5306    2.6099   -0.8056 C   0  0  0  0  0  0  0  0  0  0  0  0
   -5.5189    0.7601    1.1720 C   0  0  0  0  0  0  0  0  0  0  0  0
   -5.9204    2.7112   -0.1730 C   0  0  0  0  0  0  0  0  0  0  0  0
   -2.2399    2.0635   -0.0998 C   0  0  0  0  0  0  0  0  0  0  0  0
   -7.7763    1.4883    0.7548 C   0  0  0  0  0  0  0  0  0  0  0  0
   -1.6866    3.3367    0.0355 C   0  0  0  0  0  0  0  0  0  0  0  0
   -1.4221    0.9773   -0.4117 C   0  0  0  0  0  0  0  0  0  0  0  0
   -0.3157    3.5239   -0.1407 C   0  0  0  0  0  0  0  0  0  0  0  0
   -0.0512    1.1643   -0.5880 C   0  0  0  0  0  0  0  0  0  0  0  0
    0.5021    2.4377   -0.4525 C   0  0  0  0  0  0  0  0  0  0  0  0
    3.0012    1.7923   -0.4176 C   0  0  0  0  0  0  0  0  0  0  0  0
    5.2273    1.4775   -0.4822 C   0  0  0  0  0  0  0  0  0  0  0  0
    5.0257    0.1941    0.0026 C   0  0  0  0  0  0  0  0  0  0  0  0
    3.7603   -0.2796    0.2776 C   0  0  0  0  0  0  0  0  0  0  0  0
    6.6235    1.6222   -0.6476 C   0  0  0  0  0  0  0  0  0  0  0  0
    2.2001   -1.8862    0.9901 C   0  0  0  0  0  0  0  0  0  0  0  0
    7.1770    0.4229   -0.2544 C   0  0  0  0  0  0  0  0  0  0  0  0
    1.4434   -2.4738   -0.0236 C   0  0  0  0  0  0  0  0  0  0  0  0
    0.1136   -2.8229    0.2119 C   0  0  0  0  0  0  0  0  0  0  0  0
    1.6272   -1.6479    2.2394 C   0  0  0  0  0  0  0  0  0  0  0  0
   -0.4594   -2.5845    1.4611 C   0  0  0  0  0  0  0  0  0  0  0  0
    0.2973   -1.9970    2.4747 C   0  0  0  0  0  0  0  0  0  0  0  0
   -1.9799   -3.8278   -0.7514 C   0  0  0  0  0  0  0  0  0  0  0  0
   -2.4241   -4.4124   -2.0500 C   0  0  0  0  0  0  0  0  0  0  0  0
   -3.6720   -4.8672   -2.1995 C   0  0  0  0  0  0  0  0  0  0  0  0
   -4.1409   -0.1448   -0.2262 H   0  0  0  0  0  0  0  0  0  0  0  0
   -3.4597    0.2077    1.3755 H   0  0  0  0  0  0  0  0  0  0  0  0
   -4.1740    3.6264   -1.0077 H   0  0  0  0  0  0  0  0  0  0  0  0
   -4.5924    2.0917   -1.7714 H   0  0  0  0  0  0  0  0  0  0  0  0
   -5.8928   -0.2325    1.4509 H   0  0  0  0  0  0  0  0  0  0  0  0
   -5.4635    1.3583    2.0917 H   0  0  0  0  0  0  0  0  0  0  0  0
   -5.8775    3.3723    0.7032 H   0  0  0  0  0  0  0  0  0  0  0  0
   -6.5951    3.1775   -0.9012 H   0  0  0  0  0  0  0  0  0  0  0  0
   -8.4612    1.9212    0.0174 H   0  0  0  0  0  0  0  0  0  0  0  0
   -7.8086    2.1057    1.6599 H   0  0  0  0  0  0  0  0  0  0  0  0
   -8.1676    0.4949    1.0009 H   0  0  0  0  0  0  0  0  0  0  0  0
   -2.3045    4.1933    0.2923 H   0  0  0  0  0  0  0  0  0  0  0  0
   -1.8232   -0.0226   -0.5512 H   0  0  0  0  0  0  0  0  0  0  0  0
    0.1038    4.5205   -0.0289 H   0  0  0  0  0  0  0  0  0  0  0  0
    0.5363    0.3045   -0.8884 H   0  0  0  0  0  0  0  0  0  0  0  0
    2.1538    3.5818   -0.8572 H   0  0  0  0  0  0  0  0  0  0  0  0
    7.1630    2.4868   -1.0067 H   0  0  0  0  0  0  0  0  0  0  0  0
    8.1903    0.0522   -0.2008 H   0  0  0  0  0  0  0  0  0  0  0  0
    1.8971   -2.6569   -0.9950 H   0  0  0  0  0  0  0  0  0  0  0  0
    2.2109   -1.1907    3.0336 H   0  0  0  0  0  0  0  0  0  0  0  0
   -1.4812   -2.8244    1.7193 H   0  0  0  0  0  0  0  0  0  0  0  0
   -0.1479   -1.8098    3.4476 H   0  0  0  0  0  0  0  0  0  0  0  0
   -0.1454   -3.5486   -1.6802 H   0  0  0  0  0  0  0  0  0  0  0  0
   -1.7220   -4.4648   -2.8749 H   0  0  0  0  0  0  0  0  0  0  0  0
   -3.9845   -5.2904   -3.1485 H   0  0  0  0  0  0  0  0  0  0  0  0
   -4.4062   -4.8343   -1.4023 H   0  0  0  0  0  0  0  0  0  0  0  0
  1 23  1  0  0  0  0
  1 27  1  0  0  0  0
  2 24  1  0  0  0  0
  2 26  1  0  0  0  0
  3 33  2  0  0  0  0
  4 10  1  0  0  0  0
  4 11  1  0  0  0  0
  4 14  1  0  0  0  0
  5 12  1  0  0  0  0
  5 13  1  0  0  0  0
  5 15  1  0  0  0  0
  6 20  1  0  0  0  0
  6 21  1  0  0  0  0
  6 51  1  0  0  0  0
  7 21  2  0  0  0  0
  7 22  1  0  0  0  0
  8 21  1  0  0  0  0
  8 24  2  0  0  0  0
  9 29  1  0  0  0  0
  9 33  1  0  0  0  0
  9 58  1  0  0  0  0
 10 12  1  0  0  0  0
 10 36  1  0  0  0  0
 10 37  1  0  0  0  0
 11 13  1  0  0  0  0
 11 38  1  0  0  0  0
 11 39  1  0  0  0  0
 12 40  1  0  0  0  0
 12 41  1  0  0  0  0
 13 42  1  0  0  0  0
 13 43  1  0  0  0  0
 14 16  2  0  0  0  0
 14 17  1  0  0  0  0
 15 44  1  0  0  0  0
 15 45  1  0  0  0  0
 15 46  1  0  0  0  0
 16 18  1  0  0  0  0
 16 47  1  0  0  0  0
 17 19  2  0  0  0  0
 17 48  1  0  0  0  0
 18 20  2  0  0  0  0
 18 49  1  0  0  0  0
 19 20  1  0  0  0  0
 19 50  1  0  0  0  0
 22 23  2  0  0  0  0
 22 25  1  0  0  0  0
 23 24  1  0  0  0  0
 25 27  2  0  0  0  0
 25 52  1  0  0  0  0
 26 28  1  0  0  0  0
 26 30  2  0  0  0  0
 27 53  1  0  0  0  0
 28 29  2  0  0  0  0
 28 54  1  0  0  0  0
 29 31  1  0  0  0  0
 30 32  1  0  0  0  0
 30 55  1  0  0  0  0
 31 32  2  0  0  0  0
 31 56  1  0  0  0  0
 32 57  1  0  0  0  0
 33 34  1  0  0  0  0
 34 35  2  0  0  0  0
 34 59  1  0  0  0  0
 35 60  1  0  0  0  0
 35 61  1  0  0  0  0
M  END
> <PUBCHEM_COMPOUND_CID>
56644522

> <PUBCHEM_CONFORMER_RMSD>
1

> <PUBCHEM_CONFORMER_DIVERSEORDER>
1
38
182
65
178
145
78
206
126
184
2
137
196
154
148
203
177
64
59
42
98
146
144
87
107
147
18
194
119
34
176
67
90
172
23
179
117
149
40
113
100
33
125
63
24
150
25
197
61
191
112
26
21
69
56
131
157
95
27
106
204
76
73
70
115
123
158
104
68
93
143
127
140
20
120
202
209
201
22
189
44
195
183
28
75
124
97
46
159
133
155
211
198
118
74
207
122
85
55
35
19
136
212
17
185
89
80
142
11
174
151
187
121
167
5
128
30
43
135
77
180
210
175
132
82
51
14
47
168
193
32
141
162
62
12
60
54
84
71
186
52
166
173
86
110
4
88
192
36
114
156
153
139
96
160
199
181
165
39
129
190
111
102
15
169
16
138
3
91
200
94
49
134
79
29
31
170
171
66
103
48
8
108
7
161
101
53
13
163
9
130
92
50
45
164
41
37
6
57
81
99
83
72
10
109
105
188
208
205
58
116
152

> <PUBCHEM_MMFF94_PARTIAL_CHARGES>
50
1 -0.28
10 0.37
11 0.37
12 0.27
13 0.27
14 0.1
15 0.27
16 -0.15
17 -0.15
18 -0.15
19 -0.15
2 -0.17
20 0.1
21 0.72
22 0.26
23 0.14
24 0.39
25 -0.15
26 0.08
27 -0.01
28 -0.15
29 0.12
3 -0.57
30 -0.15
31 -0.15
32 -0.15
33 0.62
34 -0.14
35 -0.3
4 -0.84
47 0.15
48 0.15
49 0.15
5 -0.81
50 0.15
51 0.4
52 0.15
53 0.15
54 0.15
55 0.15
56 0.15
57 0.15
58 0.37
59 0.15
6 -0.6
60 0.15
61 0.15
7 -0.57
8 -0.62
9 -0.55

> <PUBCHEM_EFFECTIVE_ROTOR_COUNT>
9.2

> <PUBCHEM_PHARMACOPHORE_FEATURES>
13
1 1 acceptor
1 3 acceptor
1 35 hydrophobe
1 4 cation
1 5 cation
1 6 donor
1 9 donor
4 6 7 8 21 cation
5 1 22 23 25 27 rings
6 14 16 17 18 19 20 rings
6 26 28 29 30 31 32 rings
6 4 5 10 11 12 13 rings
6 7 8 21 22 23 24 rings

> <PUBCHEM_HEAVY_ATOM_COUNT>
35

> <PUBCHEM_ATOM_DEF_STEREO_COUNT>
0

> <PUBCHEM_ATOM_UDEF_STEREO_COUNT>
0

> <PUBCHEM_BOND_DEF_STEREO_COUNT>
0

> <PUBCHEM_BOND_UDEF_STEREO_COUNT>
0

> <PUBCHEM_ISOTOPIC_ATOM_COUNT>
0

> <PUBCHEM_COMPONENT_COUNT>
1

> <PUBCHEM_CACTVS_TAUTO_COUNT>
6

> <PUBCHEM_CONFORMER_ID>
036053AA00000001

> <PUBCHEM_MMFF94_ENERGY>
118.9943

> <PUBCHEM_FEATURE_SELFOVERLAP>
66.1

> <PUBCHEM_SHAPE_FINGERPRINT>
10006869 2 18115021892414570314
10258939 38 17386570133372344293
1100329 8 18336549420931408596
11421498 54 17773035254662315264
11513181 2 18199185088131643215
11578080 2 17773581906158528776
12156800 1 18123723578103341752
12788726 201 18117829118195546002
12838862 33 18261660528733609088
13402501 40 18113625559855134968
13590594 115 18050288368979137707
1361 2 18337674109910174913
14068700 686 18120373159852359221
14681490 219 17834387195959080278
14840074 17 18338230475889838205
14866123 147 18338517550813118327
15264996 74 18129656525815040311
15297060 5 18131353007658044715
15444296 7 18334586771158281197
15629462 23 18046629176859866107
15664445 248 17545039304114056483
15927050 60 18411134757630306655
15968369 153 17977667833661664931
19311894 1 18340763844583881247
19319366 153 17968091984694498562
20642791 13 18050277374158109652
20737093 15 18123438689629892469
21133410 62 17968081007564932079
21133410 90 17560526225659484025
21197605 99 18260839206395067931
21344244 181 18057897857321868286
23559900 14 17402044501291593797
338550 245 18114190786183310540
3610482 184 18115322175938988230
38695281 34 18411140191212426237
394071 54 18050858706961877025
4461854 278 18342751706748823347
463206 1 18409166653550386949
5171179 24 17841148067425815608
59521120 56 18201151156587344670

> <PUBCHEM_SHAPE_MULTIPOLES>
672.79
15.37
6.25
1.52
0.56
6.71
-0.36
-11.38
0.47
-7.22
2.96
-0.74
2.02
-3.2

> <PUBCHEM_SHAPE_SELFOVERLAP>
1468.501

> <PUBCHEM_SHAPE_VOLUME>
364.1

> <PUBCHEM_COORDINATE_TYPE>
2
5
10

$$$$
73388818
  -OEChem-11282412143D

 89 95  0     1  0  0  0  0  0999 V2000
   -0.5768    3.7475    0.4780 F   0  0  0  0  0  0  0  0  0  0  0  0
    1.2847   -5.2092   -4.0180 O   0  0  0  0  0  0  0  0  0  0  0  0
   -1.2675    0.5062    4.6656 O   0  0  0  0  0  0  0  0  0  0  0  0
    3.8013    3.3647   -1.3184 O   0  0  0  0  0  0  0  0  0  0  0  0
    0.9921   -4.2066   -1.2342 N   0  0  0  0  0  0  0  0  0  0  0  0
    1.0905   -2.7331    1.2472 N   0  0  0  0  0  0  0  0  0  0  0  0
   -2.9020    0.2180    3.0304 N   0  0  0  0  0  0  0  0  0  0  0  0
   -3.2693    0.8297   -0.2311 N   0  0  0  0  0  0  0  0  0  0  0  0
   -2.0036    1.1627    0.0833 N   0  0  0  0  0  0  0  0  0  0  0  0
   -4.7563    0.8039   -2.1417 N   0  0  0  0  0  0  0  0  0  0  0  0
   -3.6549    1.6353   -4.1532 N   0  0  0  0  0  0  0  0  0  0  0  0
   -1.3841    2.3698   -4.1705 N   0  0  0  0  0  0  0  0  0  0  0  0
   -1.8664   -3.5182    2.9645 N   0  0  0  0  0  0  0  0  0  0  0  0
    0.5440   -5.3662   -2.0227 C   0  0  0  0  0  0  0  0  0  0  0  0
   -0.1762   -3.4651   -0.7446 C   0  0  0  0  0  0  0  0  0  0  0  0
    1.8160   -4.6662   -0.1099 C   0  0  0  0  0  0  0  0  0  0  0  0
    0.2606   -2.2802    0.1238 C   0  0  0  0  0  0  0  0  0  0  0  0
    2.2549   -3.4814    0.7576 C   0  0  0  0  0  0  0  0  0  0  0  0
    1.5102   -1.6013    2.0714 C   0  0  0  0  0  0  0  0  0  0  0  0
    1.7232   -5.9127   -2.8274 C   0  0  0  0  0  0  0  0  0  0  0  0
    0.0268   -4.8777   -3.3756 C   0  0  0  0  0  0  0  0  0  0  0  0
   -4.1932    0.2805    0.8505 C   0  0  1  0  0  0  0  0  0  0  0  0
    2.3594   -0.6670    1.1916 C   0  0  0  0  0  0  0  0  0  0  0  0
    2.3813   -2.1608    3.2091 C   0  0  0  0  0  0  0  0  0  0  0  0
    0.3782   -0.7910    2.6959 C   0  0  0  0  0  0  0  0  0  0  0  0
   -3.5062   -0.5698    1.9416 C   0  0  0  0  0  0  0  0  0  0  0  0
   -5.0615    1.3917    1.4619 C   0  0  0  0  0  0  0  0  0  0  0  0
   -4.3030    2.1965    2.5115 C   0  0  0  0  0  0  0  0  0  0  0  0
   -3.7412    1.2803    3.5886 C   0  0  0  0  0  0  0  0  0  0  0  0
   -0.8561   -1.1477    3.0922 C   0  0  0  0  0  0  0  0  0  0  0  0
   -1.6907   -0.0707    3.6623 C   0  0  0  0  0  0  0  0  0  0  0  0
   -3.5790    1.0408   -1.5419 C   0  0  0  0  0  0  0  0  0  0  0  0
   -2.4329    1.5487   -2.1281 C   0  0  0  0  0  0  0  0  0  0  0  0
   -1.4995    1.5998   -1.0760 C   0  0  0  0  0  0  0  0  0  0  0  0
   -1.4031   -2.4553    3.0166 C   0  0  0  0  0  0  0  0  0  0  0  0
   -2.4965    1.8498   -3.4845 C   0  0  0  0  0  0  0  0  0  0  0  0
   -0.1343    2.0576   -1.1361 C   0  0  0  0  0  0  0  0  0  0  0  0
   -4.6980    1.1329   -3.4504 C   0  0  0  0  0  0  0  0  0  0  0  0
    0.2820    3.1290   -0.3457 C   0  0  0  0  0  0  0  0  0  0  0  0
    0.7720    1.4255   -1.9876 C   0  0  0  0  0  0  0  0  0  0  0  0
    1.6045    3.5683   -0.4071 C   0  0  0  0  0  0  0  0  0  0  0  0
    2.0943    1.8651   -2.0492 C   0  0  0  0  0  0  0  0  0  0  0  0
    2.5106    2.9365   -1.2587 C   0  0  0  0  0  0  0  0  0  0  0  0
    4.7116    2.7882   -0.4485 C   0  0  0  0  0  0  0  0  0  0  0  0
    5.4148    1.6460   -0.8313 C   0  0  0  0  0  0  0  0  0  0  0  0
    4.9243    3.3488    0.8110 C   0  0  0  0  0  0  0  0  0  0  0  0
    6.3308    1.0643    0.0453 C   0  0  0  0  0  0  0  0  0  0  0  0
    5.8402    2.7670    1.6877 C   0  0  0  0  0  0  0  0  0  0  0  0
    6.5436    1.6249    1.3047 C   0  0  0  0  0  0  0  0  0  0  0  0
   -0.0743   -6.1085   -1.5093 H   0  0  0  0  0  0  0  0  0  0  0  0
   -0.8399   -4.1200   -0.1631 H   0  0  0  0  0  0  0  0  0  0  0  0
   -0.7715   -3.0650   -1.5723 H   0  0  0  0  0  0  0  0  0  0  0  0
    2.7213   -5.1752   -0.4573 H   0  0  0  0  0  0  0  0  0  0  0  0
    1.2634   -5.3878    0.5083 H   0  0  0  0  0  0  0  0  0  0  0  0
   -0.6460   -1.7626    0.4452 H   0  0  0  0  0  0  0  0  0  0  0  0
    0.7918   -1.5975   -0.5485 H   0  0  0  0  0  0  0  0  0  0  0  0
    2.9390   -2.8937    0.1390 H   0  0  0  0  0  0  0  0  0  0  0  0
    2.8325   -3.9271    1.5729 H   0  0  0  0  0  0  0  0  0  0  0  0
    2.7410   -5.6194   -2.5581 H   0  0  0  0  0  0  0  0  0  0  0  0
    1.7011   -6.9957   -2.9911 H   0  0  0  0  0  0  0  0  0  0  0  0
   -0.7888   -5.4765   -3.7956 H   0  0  0  0  0  0  0  0  0  0  0  0
   -0.2095   -3.8191   -3.5109 H   0  0  0  0  0  0  0  0  0  0  0  0
   -4.8436   -0.3943    0.2771 H   0  0  0  0  0  0  0  0  0  0  0  0
    1.7978   -0.1622    0.4020 H   0  0  0  0  0  0  0  0  0  0  0  0
    2.7439    0.1541    1.8158 H   0  0  0  0  0  0  0  0  0  0  0  0
    3.2652   -1.1032    0.7652 H   0  0  0  0  0  0  0  0  0  0  0  0
    2.5273   -1.4025    3.9904 H   0  0  0  0  0  0  0  0  0  0  0  0
    1.9138   -3.0235    3.7003 H   0  0  0  0  0  0  0  0  0  0  0  0
    3.3920   -2.4396    2.8907 H   0  0  0  0  0  0  0  0  0  0  0  0
    0.6522    0.2537    2.8642 H   0  0  0  0  0  0  0  0  0  0  0  0
   -4.2518   -1.2190    2.4169 H   0  0  0  0  0  0  0  0  0  0  0  0
   -2.7770   -1.2086    1.4454 H   0  0  0  0  0  0  0  0  0  0  0  0
   -5.9401    0.9339    1.9342 H   0  0  0  0  0  0  0  0  0  0  0  0
   -5.4369    2.0664    0.6836 H   0  0  0  0  0  0  0  0  0  0  0  0
   -4.9734    2.9341    2.9666 H   0  0  0  0  0  0  0  0  0  0  0  0
   -3.4876    2.7535    2.0351 H   0  0  0  0  0  0  0  0  0  0  0  0
   -3.1789    1.8770    4.3142 H   0  0  0  0  0  0  0  0  0  0  0  0
   -4.5553    0.7903    4.1363 H   0  0  0  0  0  0  0  0  0  0  0  0
   -5.6097    0.9735   -4.0161 H   0  0  0  0  0  0  0  0  0  0  0  0
    0.4721    0.5794   -2.6017 H   0  0  0  0  0  0  0  0  0  0  0  0
   -0.5498    2.6612   -3.6866 H   0  0  0  0  0  0  0  0  0  0  0  0
   -1.4844    2.5807   -5.1547 H   0  0  0  0  0  0  0  0  0  0  0  0
    1.9175    4.4067    0.2089 H   0  0  0  0  0  0  0  0  0  0  0  0
    2.7920    1.3671   -2.7168 H   0  0  0  0  0  0  0  0  0  0  0  0
    5.2592    1.2047   -1.8118 H   0  0  0  0  0  0  0  0  0  0  0  0
    4.3849    4.2411    1.1164 H   0  0  0  0  0  0  0  0  0  0  0  0
    6.8786    0.1752   -0.2530 H   0  0  0  0  0  0  0  0  0  0  0  0
    6.0065    3.2038    2.6681 H   0  0  0  0  0  0  0  0  0  0  0  0
    7.2568    1.1720    1.9871 H   0  0  0  0  0  0  0  0  0  0  0  0
  1 39  1  0  0  0  0
  2 20  1  0  0  0  0
  2 21  1  0  0  0  0
  3 31  2  0  0  0  0
  4 43  1  0  0  0  0
  4 44  1  0  0  0  0
  5 14  1  0  0  0  0
  5 15  1  0  0  0  0
  5 16  1  0  0  0  0
  6 17  1  0  0  0  0
  6 18  1  0  0  0  0
  6 19  1  0  0  0  0
  7 26  1  0  0  0  0
  7 29  1  0  0  0  0
  7 31  1  0  0  0  0
  8  9  1  0  0  0  0
  8 22  1  0  0  0  0
  8 32  1  0  0  0  0
  9 34  2  0  0  0  0
 10 32  2  0  0  0  0
 10 38  1  0  0  0  0
 11 36  1  0  0  0  0
 11 38  2  0  0  0  0
 12 36  1  0  0  0  0
 12 81  1  0  0  0  0
 12 82  1  0  0  0  0
 13 35  3  0  0  0  0
 14 20  1  0  0  0  0
 14 21  1  0  0  0  0
 14 50  1  0  0  0  0
 15 17  1  0  0  0  0
 15 51  1  0  0  0  0
 15 52  1  0  0  0  0
 16 18  1  0  0  0  0
 16 53  1  0  0  0  0
 16 54  1  0  0  0  0
 17 55  1  0  0  0  0
 17 56  1  0  0  0  0
 18 57  1  0  0  0  0
 18 58  1  0  0  0  0
 19 23  1  0  0  0  0
 19 24  1  0  0  0  0
 19 25  1  0  0  0  0
 20 59  1  0  0  0  0
 20 60  1  0  0  0  0
 21 61  1  0  0  0  0
 21 62  1  0  0  0  0
 22 26  1  0  0  0  0
 22 27  1  0  0  0  0
 22 63  1  0  0  0  0
 23 64  1  0  0  0  0
 23 65  1  0  0  0  0
 23 66  1  0  0  0  0
 24 67  1  0  0  0  0
 24 68  1  0  0  0  0
 24 69  1  0  0  0  0
 25 30  2  0  0  0  0
 25 70  1  0  0  0  0
 26 71  1  0  0  0  0
 26 72  1  0  0  0  0
 27 28  1  0  0  0  0
 27 73  1  0  0  0  0
 27 74  1  0  0  0  0
 28 29  1  0  0  0  0
 28 75  1  0  0  0  0
 28 76  1  0  0  0  0
 29 77  1  0  0  0  0
 29 78  1  0  0  0  0
 30 31  1  0  0  0  0
 30 35  1  0  0  0  0
 32 33  1  0  0  0  0
 33 34  1  0  0  0  0
 33 36  2  0  0  0  0
 34 37  1  0  0  0  0
 37 39  2  0  0  0  0
 37 40  1  0  0  0  0
 38 79  1  0  0  0  0
 39 41  1  0  0  0  0
 40 42  2  0  0  0  0
 40 80  1  0  0  0  0
 41 43  2  0  0  0  0
 41 83  1  0  0  0  0
 42 43  1  0  0  0  0
 42 84  1  0  0  0  0
 44 45  2  0  0  0  0
 44 46  1  0  0  0  0
 45 47  1  0  0  0  0
 45 85  1  0  0  0  0
 46 48  2  0  0  0  0
 46 86  1  0  0  0  0
 47 49  2  0  0  0  0
 47 87  1  0  0  0  0
 48 49  1  0  0  0  0
 48 88  1  0  0  0  0
 49 89  1  0  0  0  0
M  END
> <PUBCHEM_COMPOUND_CID>
73388818

> <PUBCHEM_CONFORMER_RMSD>
1.6

> <PUBCHEM_CONFORMER_DIVERSEORDER>
22
94
103
179
117
197
72
201
59
112
157
101
126
88
204
35
189
148
130
176
174
121
81
135
99
97
206
118
80
160
172
84
146
96
91
56
71
90
74
142
58
194
105
104
107
32
110
70
131
182
79
173
53
202
155
208
216
213
119
52
62
33
192
193
40
217
57
11
115
75
132
175
44
123
165
29
15
127
209
199
68
77
164
211
195
218
166
25
167
169
171
212
190
65
98
61
198
41
23
143
141
30
49
150
6
153
168
111
139
183
180
85
86
140
191
66
5
128
159
28
122
93
137
2
156
163
158
114
100
106
149
47
134
203
187
210
186
73
124
162
215
42
113
13
154
37
200
152
144
31
64
18
196
45
108
205
89
63
129
188
184
125
76
9
82
21
109
138
67
17
95
69
83
136
207
55
181
116
185
102
60
214
3
19
92
43
145
151
120
27
87
178
12
16
38
1
50
34
54
78
26
20
170
24
8
177
14
36
4
147
7
51
46
48
133
39
161
10

> <PUBCHEM_MMFF94_PARTIAL_CHARGES>
56
1 -0.19
10 -0.57
11 -0.62
12 -0.9
13 -0.56
14 0.21
15 0.27
16 0.27
17 0.27
18 0.27
19 0.41
2 -0.52
20 0.26
21 0.26
22 0.26
25 -0.29
26 0.3
29 0.3
3 -0.57
30 0.08
31 0.62
32 0.11
34 0.23
35 0.49
36 0.41
37 0.05
38 0.47
39 0.19
4 -0.17
40 -0.15
41 -0.15
42 -0.15
43 0.08
44 0.08
45 -0.15
46 -0.15
47 -0.15
48 -0.15
49 -0.15
5 -0.75
6 -0.81
7 -0.66
70 0.15
79 0.15
8 0.31
80 0.15
81 0.4
82 0.4
83 0.15
84 0.15
85 0.15
86 0.15
87 0.15
88 0.15
89 0.15
9 -0.71

> <PUBCHEM_EFFECTIVE_ROTOR_COUNT>
12.2

> <PUBCHEM_PHARMACOPHORE_FEATURES>
19
1 12 cation
1 12 donor
1 13 acceptor
1 2 acceptor
1 3 acceptor
1 4 acceptor
1 5 cation
1 6 cation
1 9 acceptor
3 10 11 38 cation
3 19 23 24 hydrophobe
3 8 10 32 cation
4 2 14 20 21 rings
5 8 9 32 33 34 rings
6 10 11 32 33 36 38 rings
6 37 39 40 41 42 43 rings
6 44 45 46 47 48 49 rings
6 5 6 15 16 17 18 rings
6 7 22 26 27 28 29 rings

> <PUBCHEM_HEAVY_ATOM_COUNT>
49

> <PUBCHEM_ATOM_DEF_STEREO_COUNT>
1

> <PUBCHEM_ATOM_UDEF_STEREO_COUNT>
0

> <PUBCHEM_BOND_DEF_STEREO_COUNT>
1

> <PUBCHEM_BOND_UDEF_STEREO_COUNT>
0

> <PUBCHEM_ISOTOPIC_ATOM_COUNT>
0

> <PUBCHEM_COMPONENT_COUNT>
1

> <PUBCHEM_CACTVS_TAUTO_COUNT>
5

> <PUBCHEM_CONFORMER_ID>
045FD31200000016

> <PUBCHEM_MMFF94_ENERGY>
149.6352

> <PUBCHEM_FEATURE_SELFOVERLAP>
96.711

> <PUBCHEM_SHAPE_FINGERPRINT>
10010297 198 17985553255835632861
10079526 1005 18409161134380171404
10462674 125 16542147810580079764
12422481 6 17895491326744718768
15264996 74 17906700916967832808
15444296 9 17749393698008538817
15484559 13 17679552616137800556
15781502 13 16911153705050062631
15815584 197 17531809043468188988
20587220 17 18125739911026487257
20764821 26 17169851091230527128
22440779 20 16616473078277709590
3298306 158 17749934627385389684
5080951 261 17974565007638048412
57527452 28 17692557893359386283

> <PUBCHEM_SHAPE_MULTIPOLES>
938.69
10.2
7.64
5.62
10.01
13.68
0.05
-12.69
-1.84
5.77
6.98
-6.15
2.06
1.73

> <PUBCHEM_SHAPE_SELFOVERLAP>
2046.115

> <PUBCHEM_SHAPE_VOLUME>
511.1

> <PUBCHEM_COORDINATE_TYPE>
2
5
10

$$$$
117773770
  -OEChem-11282412143D

 41 43  0     1  0  0  0  0  0999 V2000
    3.7486    1.0864    1.8307 O   0  0  0  0  0  0  0  0  0  0  0  0
   -5.4486    0.4201    0.5290 O   0  0  0  0  0  0  0  0  0  0  0  0
    3.2515   -0.5581    0.2619 N   0  0  0  0  0  0  0  0  0  0  0  0
   -3.2728    1.9231   -0.4245 N   0  0  0  0  0  0  0  0  0  0  0  0
   -5.1686   -1.7574    1.1912 N   0  0  0  0  0  0  0  0  0  0  0  0
    0.9536   -0.3234   -0.6353 C   0  0  2  0  0  0  0  0  0  0  0  0
    1.3004   -1.3312   -1.7454 C   0  0  0  0  0  0  0  0  0  0  0  0
    1.8252   -0.5746    0.6057 C   0  0  0  0  0  0  0  0  0  0  0  0
    2.7964   -1.2967   -2.0539 C   0  0  0  0  0  0  0  0  0  0  0  0
    3.6374   -1.5052   -0.7951 C   0  0  0  0  0  0  0  0  0  0  0  0
   -0.5260   -0.3345   -0.3027 C   0  0  0  0  0  0  0  0  0  0  0  0
   -1.3497    0.7940   -0.4859 C   0  0  0  0  0  0  0  0  0  0  0  0
   -1.0853   -1.5129    0.2045 C   0  0  0  0  0  0  0  0  0  0  0  0
   -2.7029    0.6994   -0.1541 C   0  0  0  0  0  0  0  0  0  0  0  0
    4.1043    0.3031    0.9484 C   0  0  0  0  0  0  0  0  0  0  0  0
   -3.2758   -0.4721    0.3535 C   0  0  0  0  0  0  0  0  0  0  0  0
   -1.1284    2.1157   -0.9644 C   0  0  0  0  0  0  0  0  0  0  0  0
   -2.4394   -1.5784    0.5268 C   0  0  0  0  0  0  0  0  0  0  0  0
   -2.3293    2.7856   -0.9146 C   0  0  0  0  0  0  0  0  0  0  0  0
    5.5387    0.2749    0.5995 C   0  0  0  0  0  0  0  0  0  0  0  0
   -4.6856   -0.5500    0.6920 C   0  0  0  0  0  0  0  0  0  0  0  0
    6.2564    1.3923    0.7329 C   0  0  0  0  0  0  0  0  0  0  0  0
    1.2196    0.6713   -1.0170 H   0  0  0  0  0  0  0  0  0  0  0  0
    1.0253   -2.3520   -1.4530 H   0  0  0  0  0  0  0  0  0  0  0  0
    0.7334   -1.1015   -2.6559 H   0  0  0  0  0  0  0  0  0  0  0  0
    1.6046    0.1738    1.3752 H   0  0  0  0  0  0  0  0  0  0  0  0
    1.6241   -1.5558    1.0527 H   0  0  0  0  0  0  0  0  0  0  0  0
    3.0404   -2.0662   -2.7948 H   0  0  0  0  0  0  0  0  0  0  0  0
    3.0477   -0.3266   -2.5009 H   0  0  0  0  0  0  0  0  0  0  0  0
    3.4828   -2.5145   -0.3957 H   0  0  0  0  0  0  0  0  0  0  0  0
    4.6901   -1.4177   -1.0645 H   0  0  0  0  0  0  0  0  0  0  0  0
   -0.4765   -2.4004    0.3582 H   0  0  0  0  0  0  0  0  0  0  0  0
   -0.1961    2.5406   -1.3098 H   0  0  0  0  0  0  0  0  0  0  0  0
   -2.7864   -2.5305    0.9128 H   0  0  0  0  0  0  0  0  0  0  0  0
   -4.2466    2.1530   -0.2824 H   0  0  0  0  0  0  0  0  0  0  0  0
   -2.5958    3.7978   -1.1840 H   0  0  0  0  0  0  0  0  0  0  0  0
    6.0169   -0.6441    0.2887 H   0  0  0  0  0  0  0  0  0  0  0  0
    7.3174    1.3839    0.5054 H   0  0  0  0  0  0  0  0  0  0  0  0
    5.8259    2.3338    1.0558 H   0  0  0  0  0  0  0  0  0  0  0  0
   -4.6213   -2.5935    1.3500 H   0  0  0  0  0  0  0  0  0  0  0  0
   -6.1522   -1.8394    1.4290 H   0  0  0  0  0  0  0  0  0  0  0  0
  1 15  2  0  0  0  0
  2 21  2  0  0  0  0
  3  8  1  0  0  0  0
  3 10  1  0  0  0  0
  3 15  1  0  0  0  0
  4 14  1  0  0  0  0
  4 19  1  0  0  0  0
  4 35  1  0  0  0  0
  5 21  1  0  0  0  0
  5 40  1  0  0  0  0
  5 41  1  0  0  0  0
  6  7  1  0  0  0  0
  6  8  1  0  0  0  0
  6 11  1  0  0  0  0
  6 23  1  0  0  0  0
  7  9  1  0  0  0  0
  7 24  1  0  0  0  0
  7 25  1  0  0  0  0
  8 26  1  0  0  0  0
  8 27  1  0  0  0  0
  9 10  1  0  0  0  0
  9 28  1  0  0  0  0
  9 29  1  0  0  0  0
 10 30  1  0  0  0  0
 10 31  1  0  0  0  0
 11 12  2  0  0  0  0
 11 13  1  0  0  0  0
 12 14  1  0  0  0  0
 12 17  1  0  0  0  0
 13 18  2  0  0  0  0
 13 32  1  0  0  0  0
 14 16  2  0  0  0  0
 15 20  1  0  0  0  0
 16 18  1  0  0  0  0
 16 21  1  0  0  0  0
 17 19  2  0  0  0  0
 17 33  1  0  0  0  0
 18 34  1  0  0  0  0
 19 36  1  0  0  0  0
 20 22  2  0  0  0  0
 20 37  1  0  0  0  0
 22 38  1  0  0  0  0
 22 39  1  0  0  0  0
M  END
> <PUBCHEM_COMPOUND_CID>
117773770

> <PUBCHEM_CONFORMER_RMSD>
0.8

> <PUBCHEM_CONFORMER_DIVERSEORDER>
1
14
38
11
41
16
15
37
26
25
24
10
43
18
3
35
34
33
31
44
36
39
20
21
7
27
30
40
4
2
22
12
9
23
28
6
32
19
8
29
42
5
17
13

> <PUBCHEM_MMFF94_PARTIAL_CHARGES>
29
1 -0.57
10 0.3
11 -0.14
13 -0.15
14 -0.15
15 0.62
16 0.09
17 -0.15
18 -0.15
19 -0.3
2 -0.57
20 -0.14
21 0.54
22 -0.3
3 -0.66
32 0.15
33 0.15
34 0.15
35 0.27
36 0.15
37 0.15
38 0.15
39 0.15
4 0.03
40 0.37
41 0.37
5 -0.8
6 0.14
8 0.3

> <PUBCHEM_EFFECTIVE_ROTOR_COUNT>
5.2

> <PUBCHEM_PHARMACOPHORE_FEATURES>
9
1 1 acceptor
1 2 acceptor
1 22 hydrophobe
1 4 cation
1 4 donor
1 5 donor
5 4 12 14 17 19 rings
6 11 12 13 14 16 18 rings
6 3 6 7 8 9 10 rings

> <PUBCHEM_HEAVY_ATOM_COUNT>
22

> <PUBCHEM_ATOM_DEF_STEREO_COUNT>
1

> <PUBCHEM_ATOM_UDEF_STEREO_COUNT>
0

> <PUBCHEM_BOND_DEF_STEREO_COUNT>
0

> <PUBCHEM_BOND_UDEF_STEREO_COUNT>
0

> <PUBCHEM_ISOTOPIC_ATOM_COUNT>
0

> <PUBCHEM_COMPONENT_COUNT>
1

> <PUBCHEM_CACTVS_TAUTO_COUNT>
131

> <PUBCHEM_CONFORMER_ID>
070515CA00000001

> <PUBCHEM_MMFF94_ENERGY>
53.066

> <PUBCHEM_FEATURE_SELFOVERLAP>
45.762

> <PUBCHEM_SHAPE_FINGERPRINT>
10 15 18337381743339825432
10165383 225 17774726467276135594
10319926 262 18263066735781223130
10369192 42 17917149524374752852
11595378 159 17822282458048350944
12236239 1 16732986427018121454
12403259 415 18270686359397536302
12507560 40 18411134698002106254
12596602 18 17167857582645612888
12892183 10 18114172004760751970
13140716 1 18043538424088149027
13402501 40 18342454850681569696
13583140 156 18197487442252086310
14178342 30 17895472505954972742
14341114 176 18333447647585191152
14341114 328 17822288020548184760
14420673 8 17538550016695113234
15183329 4 11887686082627209104
15342168 16 17203326753688554352
15961568 22 18261960742927056348
16752209 62 17968107373915591607
17349148 13 16732708237596485875
1813 80 15502936308285773398
18915476 22 17632297818088836902
19784866 240 15574431020440689690
200 152 14418130716522383623
20510252 161 18338517435181109417
20600515 1 18261403286077712549
20645477 56 18273210910919650950
20645477 70 17417816085212240750
21033648 29 18130209498364059736
21065199 12 18335698300384359738
21065201 7 18115876200143558190
22122407 14 16415211095787060427
22182313 1 18342740663306003300
2297311 6 18335428954315885932
23366157 5 17172383322971864789
23402539 116 18335696170165119943
23557571 272 18409737231307346556
23559900 14 18119823421175597046
23845131 108 17400935098650502465
3009799 131 18114166559153476239
4325135 7 17274818099591846295
474 4 16630526258641156794
5104073 3 18264772064776796210
57527585 21 17773578443371441484
59755656 520 16271929345840361270
6049 1 18199760145576142404
621550 34 18202006494923647110
633830 44 15338824418067303714
77492 1 16733279957746447342

> <PUBCHEM_SHAPE_MULTIPOLES>
426.07
12.05
2.21
1.43
6.34
1.05
-0.34
1.45
5.37
-1.29
-0.57
1.07
-0.22
2.49

> <PUBCHEM_SHAPE_SELFOVERLAP>
921.594

> <PUBCHEM_SHAPE_VOLUME>
232.6

> <PUBCHEM_COORDINATE_TYPE>
2
5
10

$$$$
118161062
  -OEChem-11282412143D

 58 63  0     0  0  0  0  0  0999 V2000
   -9.3303    1.4483    0.2444 O   0  0  0  0  0  0  0  0  0  0  0  0
   -6.3685    0.3373   -0.1171 N   0  0  0  0  0  0  0  0  0  0  0  0
   -3.6812   -0.6171   -0.0429 N   0  0  0  0  0  0  0  0  0  0  0  0
    1.6066   -2.3419    0.6038 N   0  0  0  0  0  0  0  0  0  0  0  0
    5.0997   -1.6375   -0.3952 N   0  0  0  0  0  0  0  0  0  0  0  0
    2.7796   -0.3354    0.3696 N   0  0  0  0  0  0  0  0  0  0  0  0
    4.1401   -3.6424   -0.2186 N   0  0  0  0  0  0  0  0  0  0  0  0
    5.0443    2.4934   -0.1500 N   0  0  0  0  0  0  0  0  0  0  0  0
    2.6953    3.8343    0.5916 N   0  0  0  0  0  0  0  0  0  0  0  0
    6.1321    4.6083   -0.3630 N   0  0  0  0  0  0  0  0  0  0  0  0
   -7.6218    0.7063   -0.7976 C   0  0  0  0  0  0  0  0  0  0  0  0
   -5.2742    1.1698   -0.6305 C   0  0  0  0  0  0  0  0  0  0  0  0
   -6.0791   -1.0794   -0.3682 C   0  0  0  0  0  0  0  0  0  0  0  0
   -8.8042    0.1230   -0.0241 C   0  0  0  0  0  0  0  0  0  0  0  0
   -8.1067    2.0495   -0.2521 C   0  0  0  0  0  0  0  0  0  0  0  0
   -3.9550    0.8222    0.0632 C   0  0  0  0  0  0  0  0  0  0  0  0
   -4.7867   -1.5044    0.3332 C   0  0  0  0  0  0  0  0  0  0  0  0
   -2.3598   -1.0487    0.1182 C   0  0  0  0  0  0  0  0  0  0  0  0
   -1.3650   -0.5863   -0.7434 C   0  0  0  0  0  0  0  0  0  0  0  0
   -2.0373   -1.9411    1.1406 C   0  0  0  0  0  0  0  0  0  0  0  0
   -0.0479   -1.0164   -0.5828 C   0  0  0  0  0  0  0  0  0  0  0  0
   -0.7203   -2.3713    1.3013 C   0  0  0  0  0  0  0  0  0  0  0  0
    0.2745   -1.9089    0.4396 C   0  0  0  0  0  0  0  0  0  0  0  0
    2.7574   -1.6518    0.3025 C   0  0  0  0  0  0  0  0  0  0  0  0
    3.9667   -2.3471   -0.0951 C   0  0  0  0  0  0  0  0  0  0  0  0
    3.9529    0.3544    0.0640 C   0  0  0  0  0  0  0  0  0  0  0  0
    5.0953   -0.2595   -0.3175 C   0  0  0  0  0  0  0  0  0  0  0  0
    6.0649   -2.5422   -0.7370 C   0  0  0  0  0  0  0  0  0  0  0  0
    5.4495   -3.7706   -0.6195 C   0  0  0  0  0  0  0  0  0  0  0  0
    3.9082    1.8316    0.1462 C   0  0  0  0  0  0  0  0  0  0  0  0
    2.7544    2.4902    0.5104 C   0  0  0  0  0  0  0  0  0  0  0  0
    4.9852    3.8375   -0.0690 C   0  0  0  0  0  0  0  0  0  0  0  0
    3.8313    4.4960    0.2953 C   0  0  0  0  0  0  0  0  0  0  0  0
   -7.6613    0.5922   -1.8854 H   0  0  0  0  0  0  0  0  0  0  0  0
   -5.1622    1.0371   -1.7155 H   0  0  0  0  0  0  0  0  0  0  0  0
   -5.4708    2.2338   -0.4567 H   0  0  0  0  0  0  0  0  0  0  0  0
   -6.8865   -1.7204    0.0037 H   0  0  0  0  0  0  0  0  0  0  0  0
   -5.9890   -1.2707   -1.4465 H   0  0  0  0  0  0  0  0  0  0  0  0
   -9.5019   -0.4652   -0.6279 H   0  0  0  0  0  0  0  0  0  0  0  0
   -8.6059   -0.4032    0.9156 H   0  0  0  0  0  0  0  0  0  0  0  0
   -7.5521    2.5118    0.5711 H   0  0  0  0  0  0  0  0  0  0  0  0
   -8.3179    2.8048   -1.0151 H   0  0  0  0  0  0  0  0  0  0  0  0
   -3.1604    1.4215   -0.3960 H   0  0  0  0  0  0  0  0  0  0  0  0
   -4.0001    1.1032    1.1234 H   0  0  0  0  0  0  0  0  0  0  0  0
   -4.9337   -1.4784    1.4206 H   0  0  0  0  0  0  0  0  0  0  0  0
   -4.5680   -2.5399    0.0439 H   0  0  0  0  0  0  0  0  0  0  0  0
   -1.5996    0.0950   -1.5573 H   0  0  0  0  0  0  0  0  0  0  0  0
   -2.7832   -2.3103    1.8386 H   0  0  0  0  0  0  0  0  0  0  0  0
    0.7008   -0.6583   -1.2841 H   0  0  0  0  0  0  0  0  0  0  0  0
   -0.4797   -3.0636    2.1041 H   0  0  0  0  0  0  0  0  0  0  0  0
    1.6871   -3.3156    0.8851 H   0  0  0  0  0  0  0  0  0  0  0  0
    6.0216    0.2422   -0.5702 H   0  0  0  0  0  0  0  0  0  0  0  0
    7.0662   -2.2505   -1.0225 H   0  0  0  0  0  0  0  0  0  0  0  0
    5.8848   -4.7420   -0.8043 H   0  0  0  0  0  0  0  0  0  0  0  0
    1.8264    1.9862    0.7538 H   0  0  0  0  0  0  0  0  0  0  0  0
    3.7717    5.5762    0.3645 H   0  0  0  0  0  0  0  0  0  0  0  0
    6.0053    5.5516   -0.7085 H   0  0  0  0  0  0  0  0  0  0  0  0
    6.9686    4.1066   -0.6345 H   0  0  0  0  0  0  0  0  0  0  0  0
  1 14  1  0  0  0  0
  1 15  1  0  0  0  0
  2 11  1  0  0  0  0
  2 12  1  0  0  0  0
  2 13  1  0  0  0  0
  3 16  1  0  0  0  0
  3 17  1  0  0  0  0
  3 18  1  0  0  0  0
  4 23  1  0  0  0  0
  4 24  1  0  0  0  0
  4 51  1  0  0  0  0
  5 25  1  0  0  0  0
  5 27  1  0  0  0  0
  5 28  1  0  0  0  0
  6 24  2  0  0  0  0
  6 26  1  0  0  0  0
  7 25  2  0  0  0  0
  7 29  1  0  0  0  0
  8 30  1  0  0  0  0
  8 32  2  0  0  0  0
  9 31  1  0  0  0  0
  9 33  2  0  0  0  0
 10 32  1  0  0  0  0
 10 57  1  0  0  0  0
 10 58  1  0  0  0  0
 11 14  1  0  0  0  0
 11 15  1  0  0  0  0
 11 34  1  0  0  0  0
 12 16  1  0  0  0  0
 12 35  1  0  0  0  0
 12 36  1  0  0  0  0
 13 17  1  0  0  0  0
 13 37  1  0  0  0  0
 13 38  1  0  0  0  0
 14 39  1  0  0  0  0
 14 40  1  0  0  0  0
 15 41  1  0  0  0  0
 15 42  1  0  0  0  0
 16 43  1  0  0  0  0
 16 44  1  0  0  0  0
 17 45  1  0  0  0  0
 17 46  1  0  0  0  0
 18 19  2  0  0  0  0
 18 20  1  0  0  0  0
 19 21  1  0  0  0  0
 19 47  1  0  0  0  0
 20 22  2  0  0  0  0
 20 48  1  0  0  0  0
 21 23  2  0  0  0  0
 21 49  1  0  0  0  0
 22 23  1  0  0  0  0
 22 50  1  0  0  0  0
 24 25  1  0  0  0  0
 26 27  2  0  0  0  0
 26 30  1  0  0  0  0
 27 52  1  0  0  0  0
 28 29  2  0  0  0  0
 28 53  1  0  0  0  0
 29 54  1  0  0  0  0
 30 31  2  0  0  0  0
 31 55  1  0  0  0  0
 32 33  1  0  0  0  0
 33 56  1  0  0  0  0
M  END
> <PUBCHEM_COMPOUND_CID>
118161062

> <PUBCHEM_CONFORMER_RMSD>
1

> <PUBCHEM_CONFORMER_DIVERSEORDER>
1
27
30
26
4
17
29
11
20
15
19
3
28
25
16
24
18
2
5
23
12
14
13
7
22
31
21
6
10
8
9

> <PUBCHEM_MMFF94_PARTIAL_CHARGES>
45
1 -0.52
10 -0.9
11 0.21
12 0.27
13 0.27
14 0.26
15 0.26
16 0.37
17 0.37
18 0.1
19 -0.15
2 -0.75
20 -0.15
21 -0.15
22 -0.15
23 0.1
24 0.58
25 0.1
26 0.14
27 -0.18
28 -0.3
29 0.08
3 -0.84
30 0.34
31 0.16
32 0.41
33 0.16
4 -0.55
47 0.15
48 0.15
49 0.15
5 0.33
50 0.15
51 0.4
52 0.15
53 0.15
54 0.15
55 0.15
56 0.15
57 0.4
58 0.4
6 -0.62
7 -0.57
8 -0.62
9 -0.62

> <PUBCHEM_EFFECTIVE_ROTOR_COUNT>
7

> <PUBCHEM_PHARMACOPHORE_FEATURES>
15
1 1 acceptor
1 10 donor
1 2 cation
1 3 cation
1 4 donor
1 9 acceptor
3 4 6 24 cation
3 5 7 25 cation
3 8 10 32 cation
4 1 11 14 15 rings
5 5 7 25 28 29 rings
6 18 19 20 21 22 23 rings
6 2 3 12 13 16 17 rings
6 5 6 24 25 26 27 rings
6 8 9 30 31 32 33 rings

> <PUBCHEM_HEAVY_ATOM_COUNT>
33

> <PUBCHEM_ATOM_DEF_STEREO_COUNT>
0

> <PUBCHEM_ATOM_UDEF_STEREO_COUNT>
0

> <PUBCHEM_BOND_DEF_STEREO_COUNT>
0

> <PUBCHEM_BOND_UDEF_STEREO_COUNT>
0

> <PUBCHEM_ISOTOPIC_ATOM_COUNT>
0

> <PUBCHEM_COMPONENT_COUNT>
1

> <PUBCHEM_CACTVS_TAUTO_COUNT>
6

> <PUBCHEM_CONFORMER_ID>
070AFEA600000001

> <PUBCHEM_MMFF94_ENERGY>
123.6788

> <PUBCHEM_FEATURE_SELFOVERLAP>
76.281

> <PUBCHEM_SHAPE_FINGERPRINT>
10050765 1 18338233885820344147
10411042 1 18123187901804750382
10673678 19 18343586278063563991
11135609 127 18342731957823966752
11386260 185 18342176635626851622
11456790 92 17968090859396846714
12144600 37 18409452522969835611
12166972 35 18130785607801701458
12677640 9 17982454797962796217
12741549 16 18200020726344417746
12925494 130 18264207079045981361
13540713 4 18116166621484932058
13878862 14 18336811057253381740
13944108 23 18336267942166587788
14068700 686 17905896134096077146
14556957 393 17346325869370775153
14931854 50 18059306481682649960
150020 25 18187082829107905843
15082195 135 18343023293955808338
15131766 46 18127682944939181373
15183329 4 18271527481672579419
15198563 99 18053122631742195118
15320295 44 18129936914070301223
15347591 1 18339923826655061887
15419008 47 17968657112533929957
15439362 3 18338797931200604032
15530121 191 18114175282623321957
15840311 113 18408323281498789437
16067689 302 18339363084979040199
16988056 13 18409733963496799300
17899979 129 18411420652645505004
18335252 114 18340199692308908487
19053607 189 18122617516756655000
19301679 30 17833259823881703954
19309040 13 18197779006201603028
19311894 1 17619350901368236554
19315958 150 18336830883102637677
21033648 29 17749110036455527195
21049683 118 17385997403498335699
21057603 323 17765434636824535878
21133410 52 15236917939030132023
22122407 14 18340216219480090433
221357 26 18337391531090368006
23559900 14 18410571773265133626
23576562 1 18343027731032364374
24771293 8 18042401499052914597
249057 25 17703516506372000659
249057 3 18272930488252782303
3044373 193 18272936003090523663
3103668 31 17903641779113961060
3411729 13 18262513810144151272
34797466 226 18272373045148586759
397830 11 18188781660161254779
4073 2 18187929542586057803
4144715 1 18188500197795230307
44317340 157 18343016714187456963
44555599 121 18201445736226499161
4625314 4 18411976933168914943
4760202 170 18339630137192034925
5265222 85 17688598577256798284
58902169 19 18060409197403060343
59521099 67 18272084955922168856
9658208 31 17531254979771046211
99344 41 18338794628049428717

> <PUBCHEM_SHAPE_MULTIPOLES>
628.43
23.76
5.48
0.85
50.85
5.17
-0.07
10.38
4.14
-14.82
-0.2
0.11
-0.28
1.52

> <PUBCHEM_SHAPE_SELFOVERLAP>
1387.694

> <PUBCHEM_SHAPE_VOLUME>
337.1

> <PUBCHEM_COORDINATE_TYPE>
2
5
10

$$$$
72202474
  -OEChem-11282412143D

 54 57  0     1  0  0  0  0  0999 V2000
    1.5873   -2.5017    1.3762 F   0  0  0  0  0  0  0  0  0  0  0  0
    4.1934    1.0484   -0.7447 O   0  0  0  0  0  0  0  0  0  0  0  0
   -2.1700    1.7964    0.1198 N   0  0  0  0  0  0  0  0  0  0  0  0
   -3.4227   -1.2498   -1.1639 N   0  0  0  0  0  0  0  0  0  0  0  0
   -2.1509    0.5599   -0.4447 N   0  0  0  0  0  0  0  0  0  0  0  0
   -2.9313    3.6786    1.0392 N   0  0  0  0  0  0  0  0  0  0  0  0
    6.6330   -1.3164    0.6983 N   0  0  0  0  0  0  0  0  0  0  0  0
   -2.2702   -1.9817   -1.5794 C   0  0  1  0  0  0  0  0  0  0  0  0
   -1.0698    2.5704    0.3811 C   0  0  0  0  0  0  0  0  0  0  0  0
   -1.5945   -2.6179   -0.3837 C   0  0  0  0  0  0  0  0  0  0  0  0
   -3.3291    0.0028   -0.6014 C   0  0  0  0  0  0  0  0  0  0  0  0
   -3.2756    2.5106    0.5361 C   0  0  0  0  0  0  0  0  0  0  0  0
    0.2882    2.1790    0.0907 C   0  0  0  0  0  0  0  0  0  0  0  0
   -2.6783   -2.9954   -2.6465 C   0  0  0  0  0  0  0  0  0  0  0  0
   -4.6038    0.6824   -0.1867 C   0  0  0  0  0  0  0  0  0  0  0  0
   -4.5344    1.8997    0.3620 C   0  0  0  0  0  0  0  0  0  0  0  0
   -1.5642    3.7214    0.9457 C   0  0  0  0  0  0  0  0  0  0  0  0
   -0.2890   -2.2593   -0.0480 C   0  0  0  0  0  0  0  0  0  0  0  0
   -2.2773   -3.5631    0.3820 C   0  0  0  0  0  0  0  0  0  0  0  0
    0.6668    1.8958   -1.2217 C   0  0  0  0  0  0  0  0  0  0  0  0
    1.2222    2.0829    1.1222 C   0  0  0  0  0  0  0  0  0  0  0  0
    5.9493   -0.5670   -0.3545 C   0  0  1  0  0  0  0  0  0  0  0  0
    2.9135    1.4210   -0.4710 C   0  0  0  0  0  0  0  0  0  0  0  0
    4.8977    0.3453    0.2780 C   0  0  0  0  0  0  0  0  0  0  0  0
    1.9795    1.5170   -1.5025 C   0  0  0  0  0  0  0  0  0  0  0  0
    2.5348    1.7040    0.8415 C   0  0  0  0  0  0  0  0  0  0  0  0
    0.3338   -2.8460    1.0535 C   0  0  0  0  0  0  0  0  0  0  0  0
   -1.6544   -4.1496    1.4834 C   0  0  0  0  0  0  0  0  0  0  0  0
    6.9647    0.2234   -1.1802 C   0  0  0  0  0  0  0  0  0  0  0  0
   -0.3487   -3.7913    1.8192 C   0  0  0  0  0  0  0  0  0  0  0  0
   -1.5615   -1.3051   -2.0762 H   0  0  0  0  0  0  0  0  0  0  0  0
   -4.3306   -1.7007   -1.2417 H   0  0  0  0  0  0  0  0  0  0  0  0
   -3.1046   -2.4873   -3.5191 H   0  0  0  0  0  0  0  0  0  0  0  0
   -1.8139   -3.5782   -2.9836 H   0  0  0  0  0  0  0  0  0  0  0  0
   -3.4341   -3.7008   -2.2825 H   0  0  0  0  0  0  0  0  0  0  0  0
   -5.5470    0.1727   -0.3408 H   0  0  0  0  0  0  0  0  0  0  0  0
   -5.4325    2.4210    0.6735 H   0  0  0  0  0  0  0  0  0  0  0  0
   -1.0096    4.5826    1.2909 H   0  0  0  0  0  0  0  0  0  0  0  0
    0.2569   -1.5253   -0.6343 H   0  0  0  0  0  0  0  0  0  0  0  0
   -3.2963   -3.8522    0.1396 H   0  0  0  0  0  0  0  0  0  0  0  0
   -0.0447    1.9698   -2.0407 H   0  0  0  0  0  0  0  0  0  0  0  0
    0.9453    2.3023    2.1507 H   0  0  0  0  0  0  0  0  0  0  0  0
    5.4488   -1.2734   -1.0281 H   0  0  0  0  0  0  0  0  0  0  0  0
    4.2131   -0.2839    0.8637 H   0  0  0  0  0  0  0  0  0  0  0  0
    5.3748    1.0743    0.9453 H   0  0  0  0  0  0  0  0  0  0  0  0
    2.2689    1.2977   -2.5266 H   0  0  0  0  0  0  0  0  0  0  0  0
    3.2359    1.6665    1.6698 H   0  0  0  0  0  0  0  0  0  0  0  0
   -2.1861   -4.8847    2.0805 H   0  0  0  0  0  0  0  0  0  0  0  0
    7.4864    0.9670   -0.5673 H   0  0  0  0  0  0  0  0  0  0  0  0
    6.4764    0.7499   -2.0069 H   0  0  0  0  0  0  0  0  0  0  0  0
    7.7177   -0.4428   -1.6160 H   0  0  0  0  0  0  0  0  0  0  0  0
    0.1365   -4.2477    2.6769 H   0  0  0  0  0  0  0  0  0  0  0  0
    7.3053   -1.9589    0.2813 H   0  0  0  0  0  0  0  0  0  0  0  0
    5.9606   -1.8924    1.2032 H   0  0  0  0  0  0  0  0  0  0  0  0
  1 27  1  0  0  0  0
  2 23  1  0  0  0  0
  2 24  1  0  0  0  0
  3  5  1  0  0  0  0
  3  9  1  0  0  0  0
  3 12  1  0  0  0  0
  4  8  1  0  0  0  0
  4 11  1  0  0  0  0
  4 32  1  0  0  0  0
  5 11  2  0  0  0  0
  6 12  2  0  0  0  0
  6 17  1  0  0  0  0
  7 22  1  0  0  0  0
  7 53  1  0  0  0  0
  7 54  1  0  0  0  0
  8 10  1  0  0  0  0
  8 14  1  0  0  0  0
  8 31  1  0  0  0  0
  9 13  1  0  0  0  0
  9 17  2  0  0  0  0
 10 18  2  0  0  0  0
 10 19  1  0  0  0  0
 11 15  1  0  0  0  0
 12 16  1  0  0  0  0
 13 20  2  0  0  0  0
 13 21  1  0  0  0  0
 14 33  1  0  0  0  0
 14 34  1  0  0  0  0
 14 35  1  0  0  0  0
 15 16  2  0  0  0  0
 15 36  1  0  0  0  0
 16 37  1  0  0  0  0
 17 38  1  0  0  0  0
 18 27  1  0  0  0  0
 18 39  1  0  0  0  0
 19 28  2  0  0  0  0
 19 40  1  0  0  0  0
 20 25  1  0  0  0  0
 20 41  1  0  0  0  0
 21 26  2  0  0  0  0
 21 42  1  0  0  0  0
 22 24  1  0  0  0  0
 22 29  1  0  0  0  0
 22 43  1  0  0  0  0
 23 25  2  0  0  0  0
 23 26  1  0  0  0  0
 24 44  1  0  0  0  0
 24 45  1  0  0  0  0
 25 46  1  0  0  0  0
 26 47  1  0  0  0  0
 27 30  2  0  0  0  0
 28 30  1  0  0  0  0
 28 48  1  0  0  0  0
 29 49  1  0  0  0  0
 29 50  1  0  0  0  0
 29 51  1  0  0  0  0
 30 52  1  0  0  0  0
M  END
> <PUBCHEM_COMPOUND_CID>
72202474

> <PUBCHEM_CONFORMER_RMSD>
1

> <PUBCHEM_CONFORMER_DIVERSEORDER>
1
24
35
21
39
119
60
116
115
74
45
103
111
71
107
59
110
49
91
127
113
82
51
117
118
126
44
104
102
86
95
47
122
6
68
124
57
96
120
70
73
58
76
46
87
56
94
109
93
42
25
85
64
89
33
75
66
16
26
98
92
81
97
32
90
43
38
15
17
69
88
100
50
29
105
52
54
108
34
10
128
41
106
84
13
78
79
27
11
123
22
129
112
14
77
36
62
99
55
61
28
23
63
7
3
72
12
48
30
114
83
65
125
53
9
4
80
37
67
19
2
121
18
40
8
20
101
31
5

> <PUBCHEM_MMFF94_PARTIAL_CHARGES>
42
1 -0.19
10 -0.14
11 0.49
12 0.14
13 0.05
15 -0.14
16 -0.11
17 0.08
18 -0.15
19 -0.15
2 -0.36
20 -0.15
21 -0.15
22 0.27
23 0.08
24 0.28
25 -0.15
26 -0.15
27 0.19
28 -0.15
3 0.51
30 -0.15
32 0.4
36 0.15
37 0.15
38 0.15
39 0.15
4 -0.82
40 0.15
41 0.15
42 0.15
46 0.15
47 0.15
48 0.15
5 -0.65
52 0.15
53 0.36
54 0.36
6 -0.57
7 -0.99
8 0.51
9 -0.2

> <PUBCHEM_EFFECTIVE_ROTOR_COUNT>
7

> <PUBCHEM_PHARMACOPHORE_FEATURES>
10
1 2 acceptor
1 4 donor
1 7 cation
1 7 donor
3 3 6 12 cation
3 4 5 11 cation
5 3 6 9 12 17 rings
6 10 18 19 27 28 30 rings
6 13 20 21 23 25 26 rings
6 3 5 11 12 15 16 rings

> <PUBCHEM_HEAVY_ATOM_COUNT>
30

> <PUBCHEM_ATOM_DEF_STEREO_COUNT>
2

> <PUBCHEM_ATOM_UDEF_STEREO_COUNT>
0

> <PUBCHEM_BOND_DEF_STEREO_COUNT>
0

> <PUBCHEM_BOND_UDEF_STEREO_COUNT>
0

> <PUBCHEM_ISOTOPIC_ATOM_COUNT>
0

> <PUBCHEM_COMPONENT_COUNT>
1

> <PUBCHEM_CACTVS_TAUTO_COUNT>
2

> <PUBCHEM_CONFORMER_ID>
044DB8EA00000001

> <PUBCHEM_MMFF94_ENERGY>
72.8548

> <PUBCHEM_FEATURE_SELFOVERLAP>
50.882

> <PUBCHEM_SHAPE_FINGERPRINT>
1100329 8 18408605893782087432
11211813 140 17678710403596082306
11374522 58 16671926423476700387
11513181 2 17914610557892951375
11756154 5 18189340241230570307
12156800 1 16594838349060896603
12553582 1 17115511195551869077
12788726 201 17975998753203359940
14114206 34 18264469832138799957
14114207 22 17826219697592062405
14251740 79 18412546522207936536
14289585 56 17385720236917024556
14659021 117 18268980050727536960
14790565 3 18192434057019966888
14840074 17 17677057841550160380
14844126 61 18131347556974949814
14866123 147 18409168801049911482
15322534 239 18409165524016270562
15361156 5 18271532013311171156
15439362 3 17323790068300023277
16120349 306 18194402190996567264
16719943 64 18410576154410856418
17627616 140 18190736432188557122
20775438 99 16399118917917309598
23428019 142 18187644751968525490
23559900 14 18272082855546530488
3383291 50 18410855499089569995
3610482 184 18262254286903533582
38695281 34 18119534232653971600
392239 28 18263098720434597715
395649 100 18335710481781653404
4073 2 18339360890134895976
437795 70 18272374174519166270
445580 42 18335991951229169330
463206 1 18409449189526178344
70251023 43 17407944948806611567
9896288 288 18198917907096289305

> <PUBCHEM_SHAPE_MULTIPOLES>
579.34
10.87
5.87
1.65
22.62
2.76
0.5
-0.37
2.42
-5.92
-2.52
-0.53
1.35
-1.68

> <PUBCHEM_SHAPE_SELFOVERLAP>
1259.46

> <PUBCHEM_SHAPE_VOLUME>
317.6

> <PUBCHEM_COORDINATE_TYPE>
2
5
10

$$$$
71479709
  -OEChem-11282412143D

 59 62  0     0  0  0  0  0  0999 V2000
   -6.7482    1.0532    0.1511 O   0  0  0  0  0  0  0  0  0  0  0  0
    2.7606   -3.3458    0.8873 O   0  0  0  0  0  0  0  0  0  0  0  0
   -4.4776    0.6786    0.4931 N   0  0  0  0  0  0  0  0  0  0  0  0
    0.4113    2.3012    0.2764 N   0  0  0  0  0  0  0  0  0  0  0  0
    1.5513    4.2322   -0.3896 N   0  0  0  0  0  0  0  0  0  0  0  0
    3.8998    4.1323   -0.9206 N   0  0  0  0  0  0  0  0  0  0  0  0
    5.0796    2.0884   -0.7774 N   0  0  0  0  0  0  0  0  0  0  0  0
   -1.9239    2.0205    0.8728 C   0  0  0  0  0  0  0  0  0  0  0  0
   -3.2597    2.7458    1.0842 C   0  0  0  0  0  0  0  0  0  0  0  0
   -2.0979    0.8908   -0.1513 C   0  0  0  0  0  0  0  0  0  0  0  0
   -4.3599    1.7625    1.4718 C   0  0  0  0  0  0  0  0  0  0  0  0
   -3.2303   -0.0587    0.2422 C   0  0  0  0  0  0  0  0  0  0  0  0
   -0.8392    2.9975    0.4260 C   0  0  0  0  0  0  0  0  0  0  0  0
   -5.7195    0.4155   -0.0802 C   0  0  0  0  0  0  0  0  0  0  0  0
    1.5927    2.9097   -0.1256 C   0  0  0  0  0  0  0  0  0  0  0  0
   -5.8145   -0.7114   -1.0297 C   0  0  0  0  0  0  0  0  0  0  0  0
    2.7338    2.1414   -0.2348 C   0  0  0  0  0  0  0  0  0  0  0  0
    2.7391    0.7208    0.0563 C   0  0  0  0  0  0  0  0  0  0  0  0
    3.8692    2.8129   -0.6404 C   0  0  0  0  0  0  0  0  0  0  0  0
   -6.7146   -0.6510   -2.0134 C   0  0  0  0  0  0  0  0  0  0  0  0
    2.7231    4.7713   -0.7766 C   0  0  0  0  0  0  0  0  0  0  0  0
    3.0132    0.2744    1.3491 C   0  0  0  0  0  0  0  0  0  0  0  0
    2.4716   -0.1996   -0.9572 C   0  0  0  0  0  0  0  0  0  0  0  0
    3.0201   -1.0921    1.6284 C   0  0  0  0  0  0  0  0  0  0  0  0
    2.4785   -1.5661   -0.6780 C   0  0  0  0  0  0  0  0  0  0  0  0
    2.7528   -2.0124    0.6147 C   0  0  0  0  0  0  0  0  0  0  0  0
    1.7247   -4.1127    0.3805 C   0  0  0  0  0  0  0  0  0  0  0  0
    0.4090   -3.6596    0.4778 C   0  0  0  0  0  0  0  0  0  0  0  0
    1.9970   -5.3384   -0.2270 C   0  0  0  0  0  0  0  0  0  0  0  0
   -0.6343   -4.4322   -0.0325 C   0  0  0  0  0  0  0  0  0  0  0  0
    0.9538   -6.1109   -0.7374 C   0  0  0  0  0  0  0  0  0  0  0  0
   -0.3618   -5.6578   -0.6400 C   0  0  0  0  0  0  0  0  0  0  0  0
   -1.6213    1.5711    1.8293 H   0  0  0  0  0  0  0  0  0  0  0  0
   -3.5487    3.2668    0.1622 H   0  0  0  0  0  0  0  0  0  0  0  0
   -3.1567    3.5062    1.8669 H   0  0  0  0  0  0  0  0  0  0  0  0
   -2.3193    1.3198   -1.1374 H   0  0  0  0  0  0  0  0  0  0  0  0
   -1.1778    0.3047   -0.2556 H   0  0  0  0  0  0  0  0  0  0  0  0
   -4.1365    1.3014    2.4414 H   0  0  0  0  0  0  0  0  0  0  0  0
   -5.3086    2.2980    1.5788 H   0  0  0  0  0  0  0  0  0  0  0  0
   -3.3437   -0.8048   -0.5449 H   0  0  0  0  0  0  0  0  0  0  0  0
   -2.9782   -0.5914    1.1668 H   0  0  0  0  0  0  0  0  0  0  0  0
   -0.7345    3.7940    1.1728 H   0  0  0  0  0  0  0  0  0  0  0  0
   -1.1242    3.4669   -0.5237 H   0  0  0  0  0  0  0  0  0  0  0  0
    0.5090    1.4477    0.8166 H   0  0  0  0  0  0  0  0  0  0  0  0
   -5.2023   -1.5946   -0.9060 H   0  0  0  0  0  0  0  0  0  0  0  0
   -6.8158   -1.4806   -2.7056 H   0  0  0  0  0  0  0  0  0  0  0  0
   -7.3609    0.2060   -2.1686 H   0  0  0  0  0  0  0  0  0  0  0  0
    2.7187    5.8320   -0.9953 H   0  0  0  0  0  0  0  0  0  0  0  0
    3.2236    0.9786    2.1506 H   0  0  0  0  0  0  0  0  0  0  0  0
    2.2605    0.1317   -1.9713 H   0  0  0  0  0  0  0  0  0  0  0  0
    5.2500    1.3001   -0.1658 H   0  0  0  0  0  0  0  0  0  0  0  0
    5.8859    2.6175   -1.0876 H   0  0  0  0  0  0  0  0  0  0  0  0
    3.2340   -1.4340    2.6373 H   0  0  0  0  0  0  0  0  0  0  0  0
    2.2895   -2.2608   -1.4922 H   0  0  0  0  0  0  0  0  0  0  0  0
    0.1661   -2.7190    0.9650 H   0  0  0  0  0  0  0  0  0  0  0  0
    3.0200   -5.6960   -0.3057 H   0  0  0  0  0  0  0  0  0  0  0  0
   -1.6591   -4.0814    0.0473 H   0  0  0  0  0  0  0  0  0  0  0  0
    1.1658   -7.0653   -1.2104 H   0  0  0  0  0  0  0  0  0  0  0  0
   -1.1742   -6.2598   -1.0364 H   0  0  0  0  0  0  0  0  0  0  0  0
  1 14  2  0  0  0  0
  2 26  1  0  0  0  0
  2 27  1  0  0  0  0
  3 11  1  0  0  0  0
  3 12  1  0  0  0  0
  3 14  1  0  0  0  0
  4 13  1  0  0  0  0
  4 15  1  0  0  0  0
  4 44  1  0  0  0  0
  5 15  2  0  0  0  0
  5 21  1  0  0  0  0
  6 19  1  0  0  0  0
  6 21  2  0  0  0  0
  7 19  1  0  0  0  0
  7 51  1  0  0  0  0
  7 52  1  0  0  0  0
  8  9  1  0  0  0  0
  8 10  1  0  0  0  0
  8 13  1  0  0  0  0
  8 33  1  0  0  0  0
  9 11  1  0  0  0  0
  9 34  1  0  0  0  0
  9 35  1  0  0  0  0
 10 12  1  0  0  0  0
 10 36  1  0  0  0  0
 10 37  1  0  0  0  0
 11 38  1  0  0  0  0
 11 39  1  0  0  0  0
 12 40  1  0  0  0  0
 12 41  1  0  0  0  0
 13 42  1  0  0  0  0
 13 43  1  0  0  0  0
 14 16  1  0  0  0  0
 15 17  1  0  0  0  0
 16 20  2  0  0  0  0
 16 45  1  0  0  0  0
 17 18  1  0  0  0  0
 17 19  2  0  0  0  0
 18 22  2  0  0  0  0
 18 23  1  0  0  0  0
 20 46  1  0  0  0  0
 20 47  1  0  0  0  0
 21 48  1  0  0  0  0
 22 24  1  0  0  0  0
 22 49  1  0  0  0  0
 23 25  2  0  0  0  0
 23 50  1  0  0  0  0
 24 26  2  0  0  0  0
 24 53  1  0  0  0  0
 25 26  1  0  0  0  0
 25 54  1  0  0  0  0
 27 28  2  0  0  0  0
 27 29  1  0  0  0  0
 28 30  1  0  0  0  0
 28 55  1  0  0  0  0
 29 31  2  0  0  0  0
 29 56  1  0  0  0  0
 30 32  2  0  0  0  0
 30 57  1  0  0  0  0
 31 32  1  0  0  0  0
 31 58  1  0  0  0  0
 32 59  1  0  0  0  0
M  END
> <PUBCHEM_COMPOUND_CID>
71479709

> <PUBCHEM_CONFORMER_RMSD>
1

> <PUBCHEM_CONFORMER_DIVERSEORDER>
2
5
87
26
60
53
45
79
17
95
50
14
15
13
81
28
77
6
94
23
12
42
39
49
73
70
59
90
75
62
91
32
82
25
24
96
65
1
55
4
8
88
85
48
63
38
31
30
69
89
19
58
29
61
64
41
21
66
3
76
16
83
68
54
78
93
20
11
40
9
44
74
80
10
18
86
7
72
84
37
47
67
92
34
22
57
71
35
33
27
36
51
46
52
56
43

> <PUBCHEM_MMFF94_PARTIAL_CHARGES>
43
1 -0.57
11 0.3
12 0.3
13 0.37
14 0.62
15 0.41
16 -0.14
19 0.41
2 -0.17
20 -0.3
21 0.47
22 -0.15
23 -0.15
24 -0.15
25 -0.15
26 0.08
27 0.08
28 -0.15
29 -0.15
3 -0.66
30 -0.15
31 -0.15
32 -0.15
4 -0.87
44 0.4
45 0.15
46 0.15
47 0.15
48 0.15
49 0.15
5 -0.62
50 0.15
51 0.4
52 0.4
53 0.15
54 0.15
55 0.15
56 0.15
57 0.15
58 0.15
59 0.15
6 -0.62
7 -0.9

> <PUBCHEM_EFFECTIVE_ROTOR_COUNT>
9.2

> <PUBCHEM_PHARMACOPHORE_FEATURES>
12
1 1 acceptor
1 2 acceptor
1 20 hydrophobe
1 4 donor
1 7 cation
1 7 donor
3 4 5 15 cation
3 5 6 21 cation
6 18 22 23 24 25 26 rings
6 27 28 29 30 31 32 rings
6 3 8 9 10 11 12 rings
6 5 6 15 17 19 21 rings

> <PUBCHEM_HEAVY_ATOM_COUNT>
32

> <PUBCHEM_ATOM_DEF_STEREO_COUNT>
0

> <PUBCHEM_ATOM_UDEF_STEREO_COUNT>
0

> <PUBCHEM_BOND_DEF_STEREO_COUNT>
0

> <PUBCHEM_BOND_UDEF_STEREO_COUNT>
0

> <PUBCHEM_ISOTOPIC_ATOM_COUNT>
0

> <PUBCHEM_COMPONENT_COUNT>
1

> <PUBCHEM_CACTVS_TAUTO_COUNT>
9

> <PUBCHEM_CONFORMER_ID>
0442B19D00000002

> <PUBCHEM_MMFF94_ENERGY>
115.9184

> <PUBCHEM_FEATURE_SELFOVERLAP>
61.038

> <PUBCHEM_SHAPE_FINGERPRINT>
10462674 296 17980754940201053031
10483366 6 18266195967654989966
11014199 57 17617382779301430299
11069576 57 18410852136076974997
11756154 67 17331687847457521231
12788726 201 16966042502756889488
1361 2 18410854361028166411
13692114 37 18199459043142155688
13785724 45 17691142435041238521
138480 1 18121226372337526960
15250474 111 18341888615515984033
15320467 1 18338803312388846811
15351339 4 17907277103752718647
15400415 2 18266464381146101113
15483637 11 17617663597242706895
16993438 75 17758120680194976955
17138139 8 17700964707440456397
18365409 1 17759816127009365964
19319366 153 18270674380765591197
20028762 73 18342739581575709046
20775438 99 18129401405099998188
20775530 9 17686630038988536419
21133410 171 16741671250877273291
21133410 52 18341036433843923438
21133410 58 18190163617597336783
3103668 31 17400649718782517742
3882209 13 17613124418312361675
5309563 4 17977101267013613371
54324442 115 17259900153312365903
56633871 153 17692819186078726641
613672 6 17613984210445178280

> <PUBCHEM_SHAPE_MULTIPOLES>
621.9
11.63
9.47
1.27
24.82
11.45
0.01
-5.11
-2.57
-10.64
-2.09
0.59
-0.11
-3.03

> <PUBCHEM_SHAPE_SELFOVERLAP>
1341.517

> <PUBCHEM_SHAPE_VOLUME>
337

> <PUBCHEM_COORDINATE_TYPE>
2
5
10

$$$$
3896
  -OEChem-11282412143D

 33 34  0     0  0  0  0  0  0999 V2000
   -2.7177   -1.0247    2.2826 O   0  0  0  0  0  0  0  0  0  0  0  0
    5.1047   -1.2400   -0.5003 O   0  0  0  0  0  0  0  0  0  0  0  0
   -5.2333    1.2732   -2.0519 O   0  0  0  0  0  0  0  0  0  0  0  0
    3.9241    2.2878    1.2035 O   0  0  0  0  0  0  0  0  0  0  0  0
    5.4679    1.4815   -0.2570 O   0  0  0  0  0  0  0  0  0  0  0  0
   -0.3042   -0.0507    0.0254 N   0  0  0  0  0  0  0  0  0  0  0  0
   -1.3335   -1.0136   -0.2169 C   0  0  0  0  0  0  0  0  0  0  0  0
   -2.7070   -0.4235   -0.0377 C   0  0  0  0  0  0  0  0  0  0  0  0
    1.0684   -0.3471   -0.1066 C   0  0  0  0  0  0  0  0  0  0  0  0
   -3.3285   -0.4598    1.2036 C   0  0  0  0  0  0  0  0  0  0  0  0
   -3.3359    0.1538   -1.1332 C   0  0  0  0  0  0  0  0  0  0  0  0
    2.0224    0.6390    0.1449 C   0  0  0  0  0  0  0  0  0  0  0  0
    1.4719   -1.6265   -0.4885 C   0  0  0  0  0  0  0  0  0  0  0  0
    3.3798    0.3457    0.0143 C   0  0  0  0  0  0  0  0  0  0  0  0
   -4.6088    0.7045   -0.9845 C   0  0  0  0  0  0  0  0  0  0  0  0
    3.7832   -0.9337   -0.3677 C   0  0  0  0  0  0  0  0  0  0  0  0
   -4.6013    0.0909    1.3522 C   0  0  0  0  0  0  0  0  0  0  0  0
    2.8293   -1.9198   -0.6191 C   0  0  0  0  0  0  0  0  0  0  0  0
   -5.2415    0.6731    0.2582 C   0  0  0  0  0  0  0  0  0  0  0  0
    4.3599    1.3900    0.2788 C   0  0  0  0  0  0  0  0  0  0  0  0
   -1.2175   -1.9034    0.4142 H   0  0  0  0  0  0  0  0  0  0  0  0
   -1.2614   -1.3836   -1.2493 H   0  0  0  0  0  0  0  0  0  0  0  0
   -0.5501    0.8904    0.3131 H   0  0  0  0  0  0  0  0  0  0  0  0
   -2.8474    0.1840   -2.1037 H   0  0  0  0  0  0  0  0  0  0  0  0
    1.6888    1.6347    0.4288 H   0  0  0  0  0  0  0  0  0  0  0  0
    0.7647   -2.4242   -0.6943 H   0  0  0  0  0  0  0  0  0  0  0  0
    3.1298   -2.9208   -0.9175 H   0  0  0  0  0  0  0  0  0  0  0  0
   -5.0996    0.0697    2.3176 H   0  0  0  0  0  0  0  0  0  0  0  0
   -6.2330    1.0988    0.3872 H   0  0  0  0  0  0  0  0  0  0  0  0
   -1.7563   -1.0460    2.1508 H   0  0  0  0  0  0  0  0  0  0  0  0
    5.1896   -2.1703   -0.7709 H   0  0  0  0  0  0  0  0  0  0  0  0
   -6.1036    1.6026   -1.7690 H   0  0  0  0  0  0  0  0  0  0  0  0
    4.5898    2.9877    1.3749 H   0  0  0  0  0  0  0  0  0  0  0  0
  1 10  1  0  0  0  0
  1 30  1  0  0  0  0
  2 16  1  0  0  0  0
  2 31  1  0  0  0  0
  3 15  1  0  0  0  0
  3 32  1  0  0  0  0
  4 20  1  0  0  0  0
  4 33  1  0  0  0  0
  5 20  2  0  0  0  0
  6  7  1  0  0  0  0
  6  9  1  0  0  0  0
  6 23  1  0  0  0  0
  7  8  1  0  0  0  0
  7 21  1  0  0  0  0
  7 22  1  0  0  0  0
  8 10  2  0  0  0  0
  8 11  1  0  0  0  0
  9 12  2  0  0  0  0
  9 13  1  0  0  0  0
 10 17  1  0  0  0  0
 11 15  2  0  0  0  0
 11 24  1  0  0  0  0
 12 14  1  0  0  0  0
 12 25  1  0  0  0  0
 13 18  2  0  0  0  0
 13 26  1  0  0  0  0
 14 16  2  0  0  0  0
 14 20  1  0  0  0  0
 15 19  1  0  0  0  0
 16 18  1  0  0  0  0
 17 19  2  0  0  0  0
 17 28  1  0  0  0  0
 18 27  1  0  0  0  0
 19 29  1  0  0  0  0
M  END
> <PUBCHEM_COMPOUND_CID>
3896

> <PUBCHEM_CONFORMER_RMSD>
0.6

> <PUBCHEM_CONFORMER_DIVERSEORDER>
1
85
23
62
35
69
71
60
21
48
87
86
27
59
12
19
88
26
84
61
29
66
57
77
13
4
49
17
80
56
14
22
75
68
81
91
40
64
50
70
25
6
20
72
28
54
44
33
79
24
42
16
74
51
8
63
7
78
46
5
89
45
67
18
41
65
15
3
11
76
9
90
53
47
32
52
58
2
38
73
37
82
55
31
10
43
36
83
39
30
34

> <PUBCHEM_MMFF94_PARTIAL_CHARGES>
31
1 -0.53
10 0.08
11 -0.15
12 -0.15
13 -0.15
14 0.09
15 0.08
16 0.08
17 -0.15
18 -0.15
19 -0.15
2 -0.53
20 0.63
23 0.4
24 0.15
25 0.15
26 0.15
27 0.15
28 0.15
29 0.15
3 -0.53
30 0.45
31 0.45
32 0.45
33 0.5
4 -0.65
5 -0.57
6 -0.87
7 0.51
8 -0.14
9 0.1

> <PUBCHEM_EFFECTIVE_ROTOR_COUNT>
4

> <PUBCHEM_PHARMACOPHORE_FEATURES>
10
1 1 donor
1 2 donor
1 3 donor
1 4 acceptor
1 5 acceptor
1 6 cation
1 6 donor
3 4 5 20 anion
6 8 10 11 15 17 19 rings
6 9 12 13 14 16 18 rings

> <PUBCHEM_HEAVY_ATOM_COUNT>
20

> <PUBCHEM_ATOM_DEF_STEREO_COUNT>
0

> <PUBCHEM_ATOM_UDEF_STEREO_COUNT>
0

> <PUBCHEM_BOND_DEF_STEREO_COUNT>
0

> <PUBCHEM_BOND_UDEF_STEREO_COUNT>
0

> <PUBCHEM_ISOTOPIC_ATOM_COUNT>
0

> <PUBCHEM_COMPONENT_COUNT>
1

> <PUBCHEM_CACTVS_TAUTO_COUNT>
25

> <PUBCHEM_CONFORMER_ID>
00000F3800000001

> <PUBCHEM_MMFF94_ENERGY>
67.1732

> <PUBCHEM_FEATURE_SELFOVERLAP>
50.804

> <PUBCHEM_SHAPE_FINGERPRINT>
10014705 185 18409162234171152527
10912923 1 17346598564922492399
11089746 13 17275383227141061896
11471102 20 18272652346697414734
11796584 16 17313388868910902154
12236239 1 17060619971109249679
12403259 415 18186807967188724151
12616971 3 17560807601999508963
13631057 29 17843672507869761215
13675066 3 18186807997332564471
13760787 5 18060703874776584382
14251757 5 16557043787617286231
14386348 63 18113908143101926779
14528608 73 17775563169343626268
14848178 96 17916017052819788216
15081414 286 18411707599273913860
15375358 24 18187081754374376515
16079462 125 18114174229326899725
17834072 33 17703787041803218343
19489759 90 17385442120720354243
200 152 17632574916625643659
20554085 129 16951104211675354149
20612939 158 18202004322308212742
20645477 56 18261391174185535239
20645477 70 18271528606800854870
21033648 29 18259696805018366109
21065201 7 17168152221359592635
212916 134 17023178306476148515
23402655 69 17988923392376786782
23557571 272 17530975648219781959
23559900 14 17458631038750513910
268830 7 18272094834035330113
2916195 48 18113333120180046341
29717793 49 16988565667253400836
3545911 37 18411422838287849815
474 4 18201439233197359992
5104073 3 18412824724409493034
542803 24 17274826843976202075
543368 44 17274820306967659617
57724786 102 18341062868802777041
5924683 9 17749956699422654627
602551 16 16805896189712067866
633830 44 17702963439080525551
90127 26 18113621191909882476

> <PUBCHEM_SHAPE_MULTIPOLES>
377.26
13.52
1.71
1.38
1.13
0.19
-0.21
4.73
1.42
-2.68
-0.02
2.49
0.12
1.46

> <PUBCHEM_SHAPE_SELFOVERLAP>
816.33

> <PUBCHEM_SHAPE_VOLUME>
206

> <PUBCHEM_COORDINATE_TYPE>
2
5
10

$$$$
9811611
  -OEChem-11282412143D

 56 58  0     0  0  0  0  0  0999 V2000
    9.3389   -1.5285    1.0808 Br  0  0  0  0  0  0  0  0  0  0  0  0
   -0.2789    1.0108   -1.8439 S   0  0  0  0  0  0  0  0  0  0  0  0
    4.4767   -2.6926   -0.4041 F   0  0  0  0  0  0  0  0  0  0  0  0
    5.8445    1.8327   -0.8407 F   0  0  0  0  0  0  0  0  0  0  0  0
   -2.9722    1.7805   -1.8008 O   0  0  0  0  0  0  0  0  0  0  0  0
    2.9159    0.2992   -0.1051 O   0  0  0  0  0  0  0  0  0  0  0  0
   -0.1624    1.4634    2.6829 O   0  0  0  0  0  0  0  0  0  0  0  0
   -6.9312   -1.4980    0.0330 N   0  0  0  0  0  0  0  0  0  0  0  0
   -4.0234    2.3006    0.1893 N   0  0  0  0  0  0  0  0  0  0  0  0
   -1.8109    1.6791    0.2426 N   0  0  0  0  0  0  0  0  0  0  0  0
    1.3186    0.5733   -1.7047 N   0  0  0  0  0  0  0  0  0  0  0  0
    2.0215    0.8427    2.4795 N   0  0  0  0  0  0  0  0  0  0  0  0
   -5.6594   -2.0210    0.5314 C   0  0  0  0  0  0  0  0  0  0  0  0
   -7.8248   -2.6549   -0.0145 C   0  0  0  0  0  0  0  0  0  0  0  0
   -5.5117   -3.3347   -0.2221 C   0  0  0  0  0  0  0  0  0  0  0  0
   -6.9346   -3.7494   -0.5840 C   0  0  0  0  0  0  0  0  0  0  0  0
   -7.4551   -0.4252    0.8652 C   0  0  0  0  0  0  0  0  0  0  0  0
   -6.5029    0.7712    0.9229 C   0  0  0  0  0  0  0  0  0  0  0  0
   -6.2161    1.3770   -0.4566 C   0  0  0  0  0  0  0  0  0  0  0  0
   -5.3096    2.6020   -0.3767 C   0  0  0  0  0  0  0  0  0  0  0  0
   -2.9188    1.9013   -0.5796 C   0  0  0  0  0  0  0  0  0  0  0  0
   -0.5407    1.2725   -0.1715 C   0  0  0  0  0  0  0  0  0  0  0  0
    0.6335    1.0150    0.5022 C   0  0  0  0  0  0  0  0  0  0  0  0
    1.6491    0.6239   -0.4164 C   0  0  0  0  0  0  0  0  0  0  0  0
    3.7782   -0.0665   -1.1864 C   0  0  0  0  0  0  0  0  0  0  0  0
    5.1287   -0.4216   -0.6372 C   0  0  0  0  0  0  0  0  0  0  0  0
    0.7743    1.1347    1.9288 C   0  0  0  0  0  0  0  0  0  0  0  0
    5.4081   -1.7380   -0.2702 C   0  0  0  0  0  0  0  0  0  0  0  0
    6.1041    0.5649   -0.4921 C   0  0  0  0  0  0  0  0  0  0  0  0
    6.6630   -2.0679    0.2416 C   0  0  0  0  0  0  0  0  0  0  0  0
    7.3589    0.2350    0.0198 C   0  0  0  0  0  0  0  0  0  0  0  0
    7.6384   -1.0814    0.3867 C   0  0  0  0  0  0  0  0  0  0  0  0
   -5.6922   -2.2160    1.6111 H   0  0  0  0  0  0  0  0  0  0  0  0
   -4.8112   -1.3630    0.3181 H   0  0  0  0  0  0  0  0  0  0  0  0
   -8.6990   -2.4760   -0.6484 H   0  0  0  0  0  0  0  0  0  0  0  0
   -8.1715   -2.9436    0.9861 H   0  0  0  0  0  0  0  0  0  0  0  0
   -4.9225   -3.1962   -1.1363 H   0  0  0  0  0  0  0  0  0  0  0  0
   -5.0114   -4.0933    0.3883 H   0  0  0  0  0  0  0  0  0  0  0  0
   -7.1890   -4.7304   -0.1699 H   0  0  0  0  0  0  0  0  0  0  0  0
   -7.0378   -3.8075   -1.6740 H   0  0  0  0  0  0  0  0  0  0  0  0
   -7.6488   -0.7726    1.8885 H   0  0  0  0  0  0  0  0  0  0  0  0
   -8.4159   -0.0870    0.4574 H   0  0  0  0  0  0  0  0  0  0  0  0
   -6.9662    1.5410    1.5536 H   0  0  0  0  0  0  0  0  0  0  0  0
   -5.5703    0.4949    1.4275 H   0  0  0  0  0  0  0  0  0  0  0  0
   -5.7460    0.6300   -1.1068 H   0  0  0  0  0  0  0  0  0  0  0  0
   -7.1615    1.6671   -0.9306 H   0  0  0  0  0  0  0  0  0  0  0  0
   -5.1714    3.0226   -1.3787 H   0  0  0  0  0  0  0  0  0  0  0  0
   -5.7678    3.3750    0.2495 H   0  0  0  0  0  0  0  0  0  0  0  0
   -3.9110    2.3765    1.1955 H   0  0  0  0  0  0  0  0  0  0  0  0
   -1.9227    1.8223    1.2424 H   0  0  0  0  0  0  0  0  0  0  0  0
    3.3715   -0.9293   -1.7308 H   0  0  0  0  0  0  0  0  0  0  0  0
    3.8794    0.7665   -1.8948 H   0  0  0  0  0  0  0  0  0  0  0  0
    6.8642   -3.0982    0.5231 H   0  0  0  0  0  0  0  0  0  0  0  0
    8.1075    1.0158    0.1266 H   0  0  0  0  0  0  0  0  0  0  0  0
    2.1686    0.9051    3.4816 H   0  0  0  0  0  0  0  0  0  0  0  0
    2.8223    0.5616    1.9239 H   0  0  0  0  0  0  0  0  0  0  0  0
  1 32  1  0  0  0  0
  2 11  1  0  0  0  0
  2 22  1  0  0  0  0
  3 28  1  0  0  0  0
  4 29  1  0  0  0  0
  5 21  2  0  0  0  0
  6 24  1  0  0  0  0
  6 25  1  0  0  0  0
  7 27  2  0  0  0  0
  8 13  1  0  0  0  0
  8 14  1  0  0  0  0
  8 17  1  0  0  0  0
  9 20  1  0  0  0  0
  9 21  1  0  0  0  0
  9 49  1  0  0  0  0
 10 21  1  0  0  0  0
 10 22  1  0  0  0  0
 10 50  1  0  0  0  0
 11 24  2  0  0  0  0
 12 27  1  0  0  0  0
 12 55  1  0  0  0  0
 12 56  1  0  0  0  0
 13 15  1  0  0  0  0
 13 33  1  0  0  0  0
 13 34  1  0  0  0  0
 14 16  1  0  0  0  0
 14 35  1  0  0  0  0
 14 36  1  0  0  0  0
 15 16  1  0  0  0  0
 15 37  1  0  0  0  0
 15 38  1  0  0  0  0
 16 39  1  0  0  0  0
 16 40  1  0  0  0  0
 17 18  1  0  0  0  0
 17 41  1  0  0  0  0
 17 42  1  0  0  0  0
 18 19  1  0  0  0  0
 18 43  1  0  0  0  0
 18 44  1  0  0  0  0
 19 20  1  0  0  0  0
 19 45  1  0  0  0  0
 19 46  1  0  0  0  0
 20 47  1  0  0  0  0
 20 48  1  0  0  0  0
 22 23  2  0  0  0  0
 23 24  1  0  0  0  0
 23 27  1  0  0  0  0
 25 26  1  0  0  0  0
 25 51  1  0  0  0  0
 25 52  1  0  0  0  0
 26 28  2  0  0  0  0
 26 29  1  0  0  0  0
 28 30  1  0  0  0  0
 29 31  2  0  0  0  0
 30 32  2  0  0  0  0
 30 53  1  0  0  0  0
 31 32  1  0  0  0  0
 31 54  1  0  0  0  0
M  END
> <PUBCHEM_COMPOUND_CID>
9811611

> <PUBCHEM_CONFORMER_RMSD>
1.2

> <PUBCHEM_CONFORMER_DIVERSEORDER>
1
74
55
86
18
49
102
105
54
44
34
50
64
85
83
3
35
24
31
79
84
87
67
17
98
95
56
72
23
27
61
22
6
65
82
29
25
77
93
89
42
5
43
99
78
45
19
108
28
103
30
36
14
12
62
107
66
37
68
75
11
33
48
92
4
53
109
57
7
8
70
40
104
88
90
101
9
41
26
106
71
81
91
94
96
10
20
100
69
58
80
15
13
76
21
52
46
47
16
38
32
39
63
97
2
59
51
73
60

> <PUBCHEM_MMFF94_PARTIAL_CHARGES>
34
1 -0.11
10 -0.49
11 -0.51
12 -0.8
13 0.27
14 0.27
17 0.27
2 0.18
20 0.3
21 0.69
22 0.1
23 -0.09
24 0.35
25 0.42
26 -0.14
27 0.72
28 0.19
29 0.19
3 -0.19
30 -0.15
31 -0.15
32 0.11
4 -0.19
49 0.37
5 -0.57
50 0.37
53 0.15
54 0.15
55 0.37
56 0.37
6 -0.34
7 -0.57
8 -0.81
9 -0.73

> <PUBCHEM_EFFECTIVE_ROTOR_COUNT>
13

> <PUBCHEM_PHARMACOPHORE_FEATURES>
10
1 1 hydrophobe
1 10 donor
1 12 donor
1 5 acceptor
1 7 acceptor
1 8 cation
1 9 donor
5 2 11 22 23 24 rings
5 8 13 14 15 16 rings
6 26 28 29 30 31 32 rings

> <PUBCHEM_HEAVY_ATOM_COUNT>
32

> <PUBCHEM_ATOM_DEF_STEREO_COUNT>
0

> <PUBCHEM_ATOM_UDEF_STEREO_COUNT>
0

> <PUBCHEM_BOND_DEF_STEREO_COUNT>
0

> <PUBCHEM_BOND_UDEF_STEREO_COUNT>
0

> <PUBCHEM_ISOTOPIC_ATOM_COUNT>
0

> <PUBCHEM_COMPONENT_COUNT>
1

> <PUBCHEM_CACTVS_TAUTO_COUNT>
16

> <PUBCHEM_CONFORMER_ID>
0095B69B00000001

> <PUBCHEM_MMFF94_ENERGY>
55.9686

> <PUBCHEM_FEATURE_SELFOVERLAP>
50.797

> <PUBCHEM_SHAPE_FINGERPRINT>
10100884 174 18261393394710910907
10670039 82 18259982700418472115
11756154 5 17917709098309312761
11991303 11 13046243696095633105
12498461 61 18187357689682546258
12522641 68 16954761062690136157
12643181 29 18410573969121588605
1361 4 18338800013706420014
13782708 43 18343022203134328435
13947920 75 17894912953800652833
14178184 131 18130503132857863959
15183329 4 16877940563983213187
15352257 5 18413109459361007883
18608769 82 18413388739725429375
19841028 212 18195526992336625154
208703 8 17822860905029785859
20982279 24 17059234561538048262
21781051 124 17703522029974172310
23576562 1 12613906949345966466
2747138 104 16845299323840215824
3178227 256 17203611488355791892
335352 9 15358273593826447352
3711267 37 12751231528213603162
397830 11 18271235118600222249
4149490 64 18341608180369953466
4169191 19 10735880547693921041
4173938 188 18410848868593391282
439807 62 18411701010487723743
54039377 194 17822582698633886091
59682541 35 17632571639924189426
68570916 9 18335710463442124853
8863177 126 18201435917793752801
9962374 69 17748547035785281772
999808 66 18131632270937159229

> <PUBCHEM_SHAPE_MULTIPOLES>
611.28
28.49
3.5
1.6
9.79
2.74
-0.64
22.13
-3.07
-7.54
0.43
0.47
-0.79
-0.74

> <PUBCHEM_SHAPE_SELFOVERLAP>
1258.873

> <PUBCHEM_SHAPE_VOLUME>
355.1

> <PUBCHEM_COORDINATE_TYPE>
2
5
10

$$$$
59422203
  -OEChem-11282412143D

 47 49  0     1  0  0  0  0  0999 V2000
   -1.8401    4.3823    0.2066 F   0  0  0  0  0  0  0  0  0  0  0  0
   -2.0925    2.8387    1.7259 F   0  0  0  0  0  0  0  0  0  0  0  0
   -0.8405    2.4585   -0.0251 F   0  0  0  0  0  0  0  0  0  0  0  0
   -2.0602    0.4857   -1.9782 O   0  0  0  0  0  0  0  0  0  0  0  0
   -2.6335   -1.4969    0.7303 N   0  0  0  0  0  0  0  0  0  0  0  0
   -3.3488    1.1106   -0.1653 N   0  0  0  0  0  0  0  0  0  0  0  0
   -0.4003   -0.9497    0.2491 N   0  0  0  0  0  0  0  0  0  0  0  0
    2.7632    0.1939   -2.1278 N   0  0  0  0  0  0  0  0  0  0  0  0
    1.2393   -1.0138    2.0142 N   0  0  0  0  0  0  0  0  0  0  0  0
    5.0629    0.5007   -1.4794 N   0  0  0  0  0  0  0  0  0  0  0  0
   -3.0653   -1.2801   -0.6428 C   0  0  1  0  0  0  0  0  0  0  0  0
   -2.3355   -2.2792   -1.5664 C   0  0  0  0  0  0  0  0  0  0  0  0
   -4.5795   -1.5280   -0.6868 C   0  0  0  0  0  0  0  0  0  0  0  0
   -2.7625    0.1823   -1.0131 C   0  0  0  0  0  0  0  0  0  0  0  0
   -2.6030   -3.7461   -1.2406 C   0  0  0  0  0  0  0  0  0  0  0  0
   -1.3300   -1.3314    1.1494 C   0  0  0  0  0  0  0  0  0  0  0  0
   -3.1798    2.5326   -0.3497 C   0  0  0  0  0  0  0  0  0  0  0  0
    1.8596   -0.4076   -0.1854 C   0  0  0  0  0  0  0  0  0  0  0  0
   -1.0556   -1.5701    2.4805 C   0  0  0  0  0  0  0  0  0  0  0  0
    0.8452   -0.8121    0.7423 C   0  0  0  0  0  0  0  0  0  0  0  0
    3.2465   -0.1821    0.0199 C   0  0  0  0  0  0  0  0  0  0  0  0
    3.7805    0.1914   -1.2100 C   0  0  0  0  0  0  0  0  0  0  0  0
    1.5912   -0.1682   -1.5158 C   0  0  0  0  0  0  0  0  0  0  0  0
   -1.9772    3.0515    0.3976 C   0  0  0  0  0  0  0  0  0  0  0  0
    0.2593   -1.3937    2.8602 C   0  0  0  0  0  0  0  0  0  0  0  0
    4.1261   -0.2494    1.1126 C   0  0  0  0  0  0  0  0  0  0  0  0
    5.4663    0.0611    0.8894 C   0  0  0  0  0  0  0  0  0  0  0  0
    5.8643    0.4190   -0.3917 C   0  0  0  0  0  0  0  0  0  0  0  0
   -1.2541   -2.1214   -1.5967 H   0  0  0  0  0  0  0  0  0  0  0  0
   -2.6655   -2.1042   -2.6000 H   0  0  0  0  0  0  0  0  0  0  0  0
   -4.9602   -1.4269   -1.7096 H   0  0  0  0  0  0  0  0  0  0  0  0
   -5.1367   -0.8160   -0.0674 H   0  0  0  0  0  0  0  0  0  0  0  0
   -4.8531   -2.5216   -0.3163 H   0  0  0  0  0  0  0  0  0  0  0  0
   -3.2229   -2.0824    1.3145 H   0  0  0  0  0  0  0  0  0  0  0  0
   -3.6480   -4.0194   -1.4105 H   0  0  0  0  0  0  0  0  0  0  0  0
   -2.3363   -3.9933   -0.2091 H   0  0  0  0  0  0  0  0  0  0  0  0
   -1.9981   -4.3815   -1.8967 H   0  0  0  0  0  0  0  0  0  0  0  0
   -3.8731    0.7937    0.6444 H   0  0  0  0  0  0  0  0  0  0  0  0
   -3.0837    2.7530   -1.4178 H   0  0  0  0  0  0  0  0  0  0  0  0
   -4.0896    3.0176    0.0174 H   0  0  0  0  0  0  0  0  0  0  0  0
   -1.8101   -1.8754    3.1950 H   0  0  0  0  0  0  0  0  0  0  0  0
    0.6808   -0.2209   -2.0971 H   0  0  0  0  0  0  0  0  0  0  0  0
    0.5709   -1.5575    3.8863 H   0  0  0  0  0  0  0  0  0  0  0  0
    2.8627    0.4270   -3.1060 H   0  0  0  0  0  0  0  0  0  0  0  0
    3.7975   -0.5311    2.1071 H   0  0  0  0  0  0  0  0  0  0  0  0
    6.1841    0.0234    1.7018 H   0  0  0  0  0  0  0  0  0  0  0  0
    6.9056    0.6642   -0.5837 H   0  0  0  0  0  0  0  0  0  0  0  0
  1 24  1  0  0  0  0
  2 24  1  0  0  0  0
  3 24  1  0  0  0  0
  4 14  2  0  0  0  0
  5 11  1  0  0  0  0
  5 16  1  0  0  0  0
  5 34  1  0  0  0  0
  6 14  1  0  0  0  0
  6 17  1  0  0  0  0
  6 38  1  0  0  0  0
  7 16  2  0  0  0  0
  7 20  1  0  0  0  0
  8 22  1  0  0  0  0
  8 23  1  0  0  0  0
  8 44  1  0  0  0  0
  9 20  2  0  0  0  0
  9 25  1  0  0  0  0
 10 22  1  0  0  0  0
 10 28  2  0  0  0  0
 11 12  1  0  0  0  0
 11 13  1  0  0  0  0
 11 14  1  0  0  0  0
 12 15  1  0  0  0  0
 12 29  1  0  0  0  0
 12 30  1  0  0  0  0
 13 31  1  0  0  0  0
 13 32  1  0  0  0  0
 13 33  1  0  0  0  0
 15 35  1  0  0  0  0
 15 36  1  0  0  0  0
 15 37  1  0  0  0  0
 16 19  1  0  0  0  0
 17 24  1  0  0  0  0
 17 39  1  0  0  0  0
 17 40  1  0  0  0  0
 18 20  1  0  0  0  0
 18 21  1  0  0  0  0
 18 23  2  0  0  0  0
 19 25  2  0  0  0  0
 19 41  1  0  0  0  0
 21 22  2  0  0  0  0
 21 26  1  0  0  0  0
 23 42  1  0  0  0  0
 25 43  1  0  0  0  0
 26 27  2  0  0  0  0
 26 45  1  0  0  0  0
 27 28  1  0  0  0  0
 27 46  1  0  0  0  0
 28 47  1  0  0  0  0
M  END
> <PUBCHEM_COMPOUND_CID>
59422203

> <PUBCHEM_CONFORMER_RMSD>
1.2

> <PUBCHEM_CONFORMER_DIVERSEORDER>
2
7
70
75
120
86
79
3
111
15
36
46
47
69
121
109
5
55
103
34
41
119
35
13
38
60
58
19
90
88
117
95
83
59
51
67
100
113
73
16
93
108
49
115
112
123
31
50
10
94
52
82
29
32
4
1
11
107
45
74
20
43
84
25
98
76
71
23
118
122
126
72
65
101
21
12
91
85
110
33
39
104
92
8
44
87
18
78
9
81
17
80
57
53
96
62
66
89
40
48
99
37
56
24
26
105
77
61
27
14
102
28
125
97
124
116
114
22
64
30
42
106
6
68
54
63

> <PUBCHEM_MMFF94_PARTIAL_CHARGES>
33
1 -0.34
10 -0.57
11 0.43
14 0.57
16 0.41
17 0.3
18 -0.05
19 -0.15
2 -0.34
20 0.67
22 0.11
23 -0.3
24 1.02
25 0.16
26 -0.15
27 -0.15
28 0.16
3 -0.34
34 0.4
38 0.37
4 -0.57
41 0.15
42 0.15
43 0.15
44 0.27
45 0.15
46 0.15
47 0.15
5 -0.87
6 -0.73
7 -0.62
8 0.03
9 -0.62

> <PUBCHEM_EFFECTIVE_ROTOR_COUNT>
8

> <PUBCHEM_PHARMACOPHORE_FEATURES>
12
1 10 acceptor
1 15 hydrophobe
1 4 acceptor
1 5 donor
1 6 donor
1 8 cation
1 8 donor
3 5 7 16 cation
3 7 9 20 cation
5 8 18 21 22 23 rings
6 10 21 22 26 27 28 rings
6 7 9 16 19 20 25 rings

> <PUBCHEM_HEAVY_ATOM_COUNT>
28

> <PUBCHEM_ATOM_DEF_STEREO_COUNT>
1

> <PUBCHEM_ATOM_UDEF_STEREO_COUNT>
0

> <PUBCHEM_BOND_DEF_STEREO_COUNT>
0

> <PUBCHEM_BOND_UDEF_STEREO_COUNT>
0

> <PUBCHEM_ISOTOPIC_ATOM_COUNT>
0

> <PUBCHEM_COMPONENT_COUNT>
1

> <PUBCHEM_CACTVS_TAUTO_COUNT>
18

> <PUBCHEM_CONFORMER_ID>
038AB5FB00000002

> <PUBCHEM_MMFF94_ENERGY>
66.3249

> <PUBCHEM_FEATURE_SELFOVERLAP>
61.153

> <PUBCHEM_SHAPE_FINGERPRINT>
10291535 26 18408892858085789824
10937287 8 17764872394612705665
11049842 53 17840005365433311867
11488393 25 16754084161075247835
11578080 2 17630912425021977344
11640471 11 17970904462539780761
12107698 1 18339356465305432556
121448 382 18186802452551086016
12539773 59 18187364329052658575
12788726 201 18335706060925793027
13009979 54 17826480341893439811
13583140 156 17775272851736323134
13965767 371 17540255341553753133
14142880 1 18040718013849623613
14251764 38 18338516451982544144
14713325 29 18343311340190757551
15420108 30 16890584660419817880
15463212 79 18340765949107741507
15961568 22 18053651758169543376
17349148 13 17894624881685733166
17818456 19 18122892145613011346
19319366 153 17968370131598750795
20775438 99 16533968547291686675
21033650 10 18265636328719874796
23419403 2 17394186747091672803
235170 7 17775567546284338868
23557571 272 18202280333490456262
469060 322 18200048350962206803
5104073 3 16298949896297604752
531348 171 18341902840474302334
6438718 38 18265638531489692144

> <PUBCHEM_SHAPE_MULTIPOLES>
518.65
9.67
3.43
2.24
12.95
3.21
0.88
0
-3.05
-5.86
0.34
0.24
-1.02
-1.38

> <PUBCHEM_SHAPE_SELFOVERLAP>
1125.209

> <PUBCHEM_SHAPE_VOLUME>
284.1

> <PUBCHEM_COORDINATE_TYPE>
2
5
10

$$$$
91663352
  -OEChem-11282412143D

 62 65  0     1  0  0  0  0  0999 V2000
    1.9611   -1.7917    1.0736 O   0  0  0  0  0  0  0  0  0  0  0  0
    2.2911   -4.2131   -0.2500 O   0  0  0  0  0  0  0  0  0  0  0  0
    1.2525    0.9122   -1.2172 O   0  0  0  0  0  0  0  0  0  0  0  0
   -4.4396    1.1020   -0.7668 N   0  0  0  0  0  0  0  0  0  0  0  0
    1.0482    2.5065    0.4989 N   0  0  0  0  0  0  0  0  0  0  0  0
   -2.9615   -0.7208   -0.3278 N   0  0  0  0  0  0  0  0  0  0  0  0
   -5.0628   -2.0441    0.9758 N   0  0  0  0  0  0  0  0  0  0  0  0
    5.0519    1.7083    1.4549 N   0  0  0  0  0  0  0  0  0  0  0  0
   -3.4402    1.8607   -1.4504 C   0  0  2  0  0  0  0  0  0  0  0  0
   -2.5177    2.5286   -0.4536 C   0  0  0  0  0  0  0  0  0  0  0  0
   -4.1133    2.8524   -2.3970 C   0  0  0  0  0  0  0  0  0  0  0  0
   -1.1600    2.2091   -0.4365 C   0  0  0  0  0  0  0  0  0  0  0  0
   -3.0252    3.4646    0.4475 C   0  0  0  0  0  0  0  0  0  0  0  0
   -0.3099    2.8256    0.4817 C   0  0  0  0  0  0  0  0  0  0  0  0
   -4.1886   -0.1745   -0.2160 C   0  0  0  0  0  0  0  0  0  0  0  0
   -2.1751    4.0809    1.3659 C   0  0  0  0  0  0  0  0  0  0  0  0
   -0.8175    3.7615    1.3829 C   0  0  0  0  0  0  0  0  0  0  0  0
   -2.8037   -1.9405    0.2237 C   0  0  0  0  0  0  0  0  0  0  0  0
   -1.4858   -2.5248    0.1020 C   0  0  0  0  0  0  0  0  0  0  0  0
   -5.2208   -0.8244    0.4243 C   0  0  0  0  0  0  0  0  0  0  0  0
    1.7318    1.5996   -0.3219 C   0  0  0  0  0  0  0  0  0  0  0  0
   -3.8358   -2.5904    0.8639 C   0  0  0  0  0  0  0  0  0  0  0  0
   -0.3807   -1.8727    0.6490 C   0  0  0  0  0  0  0  0  0  0  0  0
   -1.3203   -3.7406   -0.5614 C   0  0  0  0  0  0  0  0  0  0  0  0
    0.8899   -2.4366    0.5329 C   0  0  0  0  0  0  0  0  0  0  0  0
    3.1948    1.4978   -0.0787 C   0  0  0  0  0  0  0  0  0  0  0  0
    1.0553   -3.6523   -0.1305 C   0  0  0  0  0  0  0  0  0  0  0  0
   -0.0498   -4.3042   -0.6777 C   0  0  0  0  0  0  0  0  0  0  0  0
    4.0661    1.1159   -1.0929 C   0  0  0  0  0  0  0  0  0  0  0  0
    5.4298    1.0301   -0.8346 C   0  0  0  0  0  0  0  0  0  0  0  0
    3.7331    1.7809    1.1664 C   0  0  0  0  0  0  0  0  0  0  0  0
    5.8680    1.3338    0.4443 C   0  0  0  0  0  0  0  0  0  0  0  0
    6.3874    0.6254   -1.8983 C   0  0  0  0  0  0  0  0  0  0  0  0
    2.2923   -2.1063    2.4249 C   0  0  0  0  0  0  0  0  0  0  0  0
    3.0548   -3.8587   -1.4012 C   0  0  0  0  0  0  0  0  0  0  0  0
   -2.8547    1.1929   -2.0970 H   0  0  0  0  0  0  0  0  0  0  0  0
   -5.2572    1.5888   -0.4125 H   0  0  0  0  0  0  0  0  0  0  0  0
   -4.7814    3.5420   -1.8688 H   0  0  0  0  0  0  0  0  0  0  0  0
   -3.3682    3.4524   -2.9310 H   0  0  0  0  0  0  0  0  0  0  0  0
   -4.7193    2.3239   -3.1419 H   0  0  0  0  0  0  0  0  0  0  0  0
   -0.8266    1.4772   -1.1581 H   0  0  0  0  0  0  0  0  0  0  0  0
   -4.0802    3.7244    0.4532 H   0  0  0  0  0  0  0  0  0  0  0  0
   -2.5706    4.8088    2.0683 H   0  0  0  0  0  0  0  0  0  0  0  0
   -0.1671    4.2495    2.1044 H   0  0  0  0  0  0  0  0  0  0  0  0
    1.5873    3.0388    1.1760 H   0  0  0  0  0  0  0  0  0  0  0  0
   -6.2120   -0.3962    0.5204 H   0  0  0  0  0  0  0  0  0  0  0  0
   -3.7231   -3.5694    1.3160 H   0  0  0  0  0  0  0  0  0  0  0  0
   -0.4977   -0.9247    1.1702 H   0  0  0  0  0  0  0  0  0  0  0  0
   -2.1680   -4.2626   -0.9990 H   0  0  0  0  0  0  0  0  0  0  0  0
    0.0719   -5.2515   -1.1961 H   0  0  0  0  0  0  0  0  0  0  0  0
    3.6915    0.8889   -2.0879 H   0  0  0  0  0  0  0  0  0  0  0  0
    3.1261    2.0511    2.0237 H   0  0  0  0  0  0  0  0  0  0  0  0
    6.9202    1.2868    0.7075 H   0  0  0  0  0  0  0  0  0  0  0  0
    5.9510   -0.1435   -2.5449 H   0  0  0  0  0  0  0  0  0  0  0  0
    6.6570    1.4908   -2.5117 H   0  0  0  0  0  0  0  0  0  0  0  0
    7.3033    0.2036   -1.4707 H   0  0  0  0  0  0  0  0  0  0  0  0
    3.1708   -1.5195    2.7068 H   0  0  0  0  0  0  0  0  0  0  0  0
    2.5339   -3.1691    2.5255 H   0  0  0  0  0  0  0  0  0  0  0  0
    1.4662   -1.8428    3.0929 H   0  0  0  0  0  0  0  0  0  0  0  0
    4.0147   -4.3798   -1.3494 H   0  0  0  0  0  0  0  0  0  0  0  0
    3.2429   -2.7804   -1.4218 H   0  0  0  0  0  0  0  0  0  0  0  0
    2.5373   -4.1676   -2.3149 H   0  0  0  0  0  0  0  0  0  0  0  0
  1 25  1  0  0  0  0
  1 34  1  0  0  0  0
  2 27  1  0  0  0  0
  2 35  1  0  0  0  0
  3 21  2  0  0  0  0
  4  9  1  0  0  0  0
  4 15  1  0  0  0  0
  4 37  1  0  0  0  0
  5 14  1  0  0  0  0
  5 21  1  0  0  0  0
  5 45  1  0  0  0  0
  6 15  2  0  0  0  0
  6 18  1  0  0  0  0
  7 20  2  0  0  0  0
  7 22  1  0  0  0  0
  8 31  1  0  0  0  0
  8 32  2  0  0  0  0
  9 10  1  0  0  0  0
  9 11  1  0  0  0  0
  9 36  1  0  0  0  0
 10 12  2  0  0  0  0
 10 13  1  0  0  0  0
 11 38  1  0  0  0  0
 11 39  1  0  0  0  0
 11 40  1  0  0  0  0
 12 14  1  0  0  0  0
 12 41  1  0  0  0  0
 13 16  2  0  0  0  0
 13 42  1  0  0  0  0
 14 17  2  0  0  0  0
 15 20  1  0  0  0  0
 16 17  1  0  0  0  0
 16 43  1  0  0  0  0
 17 44  1  0  0  0  0
 18 19  1  0  0  0  0
 18 22  2  0  0  0  0
 19 23  2  0  0  0  0
 19 24  1  0  0  0  0
 20 46  1  0  0  0  0
 21 26  1  0  0  0  0
 22 47  1  0  0  0  0
 23 25  1  0  0  0  0
 23 48  1  0  0  0  0
 24 28  2  0  0  0  0
 24 49  1  0  0  0  0
 25 27  2  0  0  0  0
 26 29  1  0  0  0  0
 26 31  2  0  0  0  0
 27 28  1  0  0  0  0
 28 50  1  0  0  0  0
 29 30  2  0  0  0  0
 29 51  1  0  0  0  0
 30 32  1  0  0  0  0
 30 33  1  0  0  0  0
 31 52  1  0  0  0  0
 32 53  1  0  0  0  0
 33 54  1  0  0  0  0
 33 55  1  0  0  0  0
 33 56  1  0  0  0  0
 34 57  1  0  0  0  0
 34 58  1  0  0  0  0
 34 59  1  0  0  0  0
 35 60  1  0  0  0  0
 35 61  1  0  0  0  0
 35 62  1  0  0  0  0
M  END
> <PUBCHEM_COMPOUND_CID>
91663352

> <PUBCHEM_CONFORMER_RMSD>
1.4

> <PUBCHEM_CONFORMER_DIVERSEORDER>
1
38
53
78
115
64
98
71
56
119
70
129
118
55
94
43
40
83
9
76
44
59
12
100
113
128
89
62
13
47
84
93
112
52
50
96
114
23
19
31
81
6
109
48
65
124
121
120
54
92
14
30
95
108
80
72
102
111
127
17
8
79
97
75
61
57
49
86
104
130
123
74
32
105
18
101
42
34
3
85
91
106
82
45
67
122
60
126
58
51
69
35
87
26
63
116
107
21
77
88
2
73
22
66
37
10
90
29
125
11
110
103
25
99
41
24
15
5
16
28
33
27
4
117
39
46
20
7
36
68

> <PUBCHEM_MMFF94_PARTIAL_CHARGES>
47
1 -0.36
10 -0.14
12 -0.15
13 -0.15
14 0.12
15 0.41
16 -0.15
17 -0.15
18 0.31
2 -0.36
20 0.16
21 0.54
22 0.16
23 -0.15
24 -0.15
25 0.08
26 0.09
27 0.08
28 -0.15
29 -0.15
3 -0.57
30 -0.14
31 0.16
32 0.16
33 0.14
34 0.28
35 0.28
37 0.4
4 -0.87
41 0.15
42 0.15
43 0.15
44 0.15
45 0.37
46 0.15
47 0.15
48 0.15
49 0.15
5 -0.55
50 0.15
51 0.15
52 0.15
53 0.15
6 -0.62
7 -0.62
8 -0.62
9 0.51

> <PUBCHEM_EFFECTIVE_ROTOR_COUNT>
9

> <PUBCHEM_PHARMACOPHORE_FEATURES>
12
1 1 acceptor
1 2 acceptor
1 3 acceptor
1 4 donor
1 5 donor
1 7 acceptor
1 8 acceptor
3 4 6 15 cation
6 10 12 13 14 16 17 rings
6 19 23 24 25 27 28 rings
6 6 7 15 18 20 22 rings
6 8 26 29 30 31 32 rings

> <PUBCHEM_HEAVY_ATOM_COUNT>
35

> <PUBCHEM_ATOM_DEF_STEREO_COUNT>
1

> <PUBCHEM_ATOM_UDEF_STEREO_COUNT>
0

> <PUBCHEM_BOND_DEF_STEREO_COUNT>
0

> <PUBCHEM_BOND_UDEF_STEREO_COUNT>
0

> <PUBCHEM_ISOTOPIC_ATOM_COUNT>
0

> <PUBCHEM_COMPONENT_COUNT>
1

> <PUBCHEM_CACTVS_TAUTO_COUNT>
4

> <PUBCHEM_CONFORMER_ID>
0576ABF800000001

> <PUBCHEM_MMFF94_ENERGY>
137.5411

> <PUBCHEM_FEATURE_SELFOVERLAP>
60.903

> <PUBCHEM_SHAPE_FINGERPRINT>
10290309 65 18339072813075929020
11200772 71 17899434244641539356
11434127 23 18272934899622071676
11513181 2 18200868487572946087
11578080 2 16516782828999851351
11646440 116 18196385916194490707
12422481 6 18115845474474959250
12788726 201 18119260699435781360
13402501 40 18341055232255439845
14251757 5 18120386603463284372
15001296 14 18117271660914374760
15274700 256 18266175214821700848
15274700 259 17606369178924241903
15320294 125 17970039280481016098
15351339 4 18338516339573987554
15439362 3 17904758882390204652
15927050 60 18198346157155694037
15968369 153 18272923913337742742
17627616 140 18266182721052221400
17852330 162 18263661688300890924
19311894 1 18126005103132974270
19611394 137 18056750148004263216
20764821 26 18124040035182482499
22440779 20 15977013930534725532
23559900 14 17980185401334665595
238918 7 18271242824309381078
3027735 51 18341623611031783712
3298306 158 18411132554317514663
373842 8 18336818685395192394
469060 322 18115605836706490073
50150288 127 16700632090622407153
5265222 85 18189907602485163380
59755656 215 18411989074044344182
6287921 2 17693929700837461504
70634741 139 18264497346406933156
9961470 85 18051967030839411168

> <PUBCHEM_SHAPE_MULTIPOLES>
677.77
11.41
6.83
1.66
8.64
3.44
0.1
-4.41
2.43
-2.1
-0.37
0.59
-0.58
1.36

> <PUBCHEM_SHAPE_SELFOVERLAP>
1471.052

> <PUBCHEM_SHAPE_VOLUME>
368.4

> <PUBCHEM_COORDINATE_TYPE>
2
5
10

$$$$
5281708
  -OEChem-11282412143D

 29 31  0     0  0  0  0  0  0999 V2000
    1.3932    1.8482   -0.0190 O   0  0  0  0  0  0  0  0  0  0  0  0
   -0.0268   -1.9767   -0.0690 O   0  0  0  0  0  0  0  0  0  0  0  0
    5.8921    0.3319    0.0414 O   0  0  0  0  0  0  0  0  0  0  0  0
   -6.1172   -0.2120    0.0417 O   0  0  0  0  0  0  0  0  0  0  0  0
    1.8360   -0.5382   -0.0113 C   0  0  0  0  0  0  0  0  0  0  0  0
   -0.5201    0.3524   -0.0269 C   0  0  0  0  0  0  0  0  0  0  0  0
    2.2640    0.7889   -0.0064 C   0  0  0  0  0  0  0  0  0  0  0  0
    0.3899   -0.8260   -0.0341 C   0  0  0  0  0  0  0  0  0  0  0  0
   -1.9846    0.2056   -0.0089 C   0  0  0  0  0  0  0  0  0  0  0  0
    0.0484    1.5675   -0.0189 C   0  0  0  0  0  0  0  0  0  0  0  0
    2.7693   -1.5780    0.0011 C   0  0  0  0  0  0  0  0  0  0  0  0
    3.6275    1.0839    0.0106 C   0  0  0  0  0  0  0  0  0  0  0  0
   -2.6981    0.1514   -1.2081 C   0  0  0  0  0  0  0  0  0  0  0  0
   -2.6652    0.1189    1.2074 C   0  0  0  0  0  0  0  0  0  0  0  0
    4.5611    0.0475    0.0234 C   0  0  0  0  0  0  0  0  0  0  0  0
    4.1327   -1.2804    0.0188 C   0  0  0  0  0  0  0  0  0  0  0  0
   -4.0859    0.0114   -1.1913 C   0  0  0  0  0  0  0  0  0  0  0  0
   -4.0529   -0.0214    1.2244 C   0  0  0  0  0  0  0  0  0  0  0  0
   -4.7633   -0.0750    0.0250 C   0  0  0  0  0  0  0  0  0  0  0  0
   -0.5128    2.4940   -0.0088 H   0  0  0  0  0  0  0  0  0  0  0  0
    2.4566   -2.6183   -0.0027 H   0  0  0  0  0  0  0  0  0  0  0  0
    3.9635    2.1178    0.0143 H   0  0  0  0  0  0  0  0  0  0  0  0
   -2.1843    0.2162   -2.1644 H   0  0  0  0  0  0  0  0  0  0  0  0
   -2.1258    0.1580    2.1508 H   0  0  0  0  0  0  0  0  0  0  0  0
    4.8527   -2.0945    0.0287 H   0  0  0  0  0  0  0  0  0  0  0  0
   -4.6275   -0.0295   -2.1325 H   0  0  0  0  0  0  0  0  0  0  0  0
   -4.5750   -0.0886    2.1749 H   0  0  0  0  0  0  0  0  0  0  0  0
    6.3926   -0.5021    0.0486 H   0  0  0  0  0  0  0  0  0  0  0  0
   -6.4433   -0.2312   -0.8744 H   0  0  0  0  0  0  0  0  0  0  0  0
  1  7  1  0  0  0  0
  1 10  1  0  0  0  0
  2  8  2  0  0  0  0
  3 15  1  0  0  0  0
  3 28  1  0  0  0  0
  4 19  1  0  0  0  0
  4 29  1  0  0  0  0
  5  7  2  0  0  0  0
  5  8  1  0  0  0  0
  5 11  1  0  0  0  0
  6  8  1  0  0  0  0
  6  9  1  0  0  0  0
  6 10  2  0  0  0  0
  7 12  1  0  0  0  0
  9 13  2  0  0  0  0
  9 14  1  0  0  0  0
 10 20  1  0  0  0  0
 11 16  2  0  0  0  0
 11 21  1  0  0  0  0
 12 15  2  0  0  0  0
 12 22  1  0  0  0  0
 13 17  1  0  0  0  0
 13 23  1  0  0  0  0
 14 18  2  0  0  0  0
 14 24  1  0  0  0  0
 15 16  1  0  0  0  0
 16 25  1  0  0  0  0
 17 19  2  0  0  0  0
 17 26  1  0  0  0  0
 18 19  1  0  0  0  0
 18 27  1  0  0  0  0
M  END
> <PUBCHEM_COMPOUND_CID>
5281708

> <PUBCHEM_CONFORMER_RMSD>
0.6

> <PUBCHEM_CONFORMER_DIVERSEORDER>
1
2

> <PUBCHEM_MMFF94_PARTIAL_CHARGES>
29
1 -0.16
10 -0.07
11 -0.15
12 -0.15
13 -0.15
14 -0.15
15 0.08
16 -0.15
17 -0.15
18 -0.15
19 0.08
2 -0.57
20 0.15
21 0.15
22 0.15
23 0.15
24 0.15
25 0.15
26 0.15
27 0.15
28 0.45
29 0.45
3 -0.53
4 -0.53
5 0.09
6 -0.01
7 0.08
8 0.47
9 0.03

> <PUBCHEM_EFFECTIVE_ROTOR_COUNT>
1

> <PUBCHEM_PHARMACOPHORE_FEATURES>
7
1 1 acceptor
1 2 acceptor
1 3 donor
1 4 donor
6 1 5 6 7 8 10 rings
6 5 7 11 12 15 16 rings
6 9 13 14 17 18 19 rings

> <PUBCHEM_HEAVY_ATOM_COUNT>
19

> <PUBCHEM_ATOM_DEF_STEREO_COUNT>
0

> <PUBCHEM_ATOM_UDEF_STEREO_COUNT>
0

> <PUBCHEM_BOND_DEF_STEREO_COUNT>
0

> <PUBCHEM_BOND_UDEF_STEREO_COUNT>
0

> <PUBCHEM_ISOTOPIC_ATOM_COUNT>
0

> <PUBCHEM_COMPONENT_COUNT>
1

> <PUBCHEM_CACTVS_TAUTO_COUNT>
10

> <PUBCHEM_CONFORMER_ID>
005097AC00000001

> <PUBCHEM_MMFF94_ENERGY>
57.5514

> <PUBCHEM_FEATURE_SELFOVERLAP>
35.55

> <PUBCHEM_SHAPE_FINGERPRINT>
10 15 17968370256633239680
11287383 113 17022626398614723756
11471102 20 18409729564964653404
11796584 16 16370724812013326466
12107183 9 17053603811471863155
12236239 1 17775567537720803681
12403259 415 18334283284374510229
13140716 1 18194681690836778864
13760787 5 18412263939040051324
13862211 1 18410852136419917954
14386348 63 17894633656034627371
14573314 32 16877939408499587267
15196674 1 18338797797719066156
15788980 27 17167865274551991211
15848702 151 17917437462422305663
1813 80 18270977755722749436
19489759 90 16153425039091981463
200 152 18343861109147672457
20279233 1 17749113283366231387
20645477 70 18335699395316417398
21033648 29 18114727300634338365
21267235 1 18411705349016563998
21641784 216 18042423369285531164
23175994 123 18114186337061532429
23402539 116 17489867137334273476
23536379 177 15913334580866259950
23557571 272 16877938313288254229
23559900 14 16877941590638528986
26918003 58 18259706704854394289
2871803 45 18187928335610082826
33824 294 18335419041632080810
34797466 226 16153721911431886366
34934 24 18410568531287011122
3545911 37 18410856581178176426
4340502 62 16660361480938398138
5104073 3 18266171739232465232
542803 24 17418375791895160137
602551 16 16298395707080156266
69090 78 18413668028300165654
7495541 125 17168435951130641493
77492 1 17703791431576247221

> <PUBCHEM_SHAPE_MULTIPOLES>
367.53
11.5
1.43
0.92
2.35
0.08
0.01
0.64
0.19
-1.32
-0.02
1.1
-0.01
0.03

> <PUBCHEM_SHAPE_SELFOVERLAP>
821.631

> <PUBCHEM_SHAPE_VOLUME>
194.2

> <PUBCHEM_COORDINATE_TYPE>
2
5
10

$$$$
907426
  -OEChem-11282412143D

 37 39  0     0  0  0  0  0  0999 V2000
    4.2236   -1.9118    0.3470 O   0  0  0  0  0  0  0  0  0  0  0  0
    5.1841    0.6419   -0.1527 O   0  0  0  0  0  0  0  0  0  0  0  0
   -1.7977    1.9672   -0.3707 O   0  0  0  0  0  0  0  0  0  0  0  0
   -6.7950   -0.0461    0.0441 O   0  0  0  0  0  0  0  0  0  0  0  0
    0.5593    2.1195   -0.4123 N   0  0  0  0  0  0  0  0  0  0  0  0
    1.1154   -0.0718    0.0085 C   0  0  0  0  0  0  0  0  0  0  0  0
    1.6103    1.2112   -0.2424 C   0  0  0  0  0  0  0  0  0  0  0  0
   -0.3382    0.0532   -0.0078 C   0  0  0  0  0  0  0  0  0  0  0  0
   -0.6821    1.4884   -0.2835 C   0  0  0  0  0  0  0  0  0  0  0  0
    1.9770   -1.1337    0.2088 C   0  0  0  0  0  0  0  0  0  0  0  0
    2.9629    1.4834   -0.3028 C   0  0  0  0  0  0  0  0  0  0  0  0
    3.3518   -0.8803    0.1519 C   0  0  0  0  0  0  0  0  0  0  0  0
    3.8397    0.4156   -0.1014 C   0  0  0  0  0  0  0  0  0  0  0  0
   -1.2565   -0.8963    0.1809 C   0  0  0  0  0  0  0  0  0  0  0  0
   -2.6738   -0.6789    0.1466 C   0  0  0  0  0  0  0  0  0  0  0  0
   -3.3716   -0.3058    1.3074 C   0  0  0  0  0  0  0  0  0  0  0  0
   -3.3940   -0.8345   -1.0499 C   0  0  0  0  0  0  0  0  0  0  0  0
   -4.7500   -0.0944    1.2731 C   0  0  0  0  0  0  0  0  0  0  0  0
   -4.7723   -0.6230   -1.0843 C   0  0  0  0  0  0  0  0  0  0  0  0
   -5.4505   -0.2529    0.0771 C   0  0  0  0  0  0  0  0  0  0  0  0
    4.6296   -2.6414   -0.8081 C   0  0  0  0  0  0  0  0  0  0  0  0
    5.8279    0.9903    1.0703 C   0  0  0  0  0  0  0  0  0  0  0  0
    0.6966    3.1049   -0.6038 H   0  0  0  0  0  0  0  0  0  0  0  0
    1.6054   -2.1339    0.4051 H   0  0  0  0  0  0  0  0  0  0  0  0
    3.3307    2.4846   -0.4991 H   0  0  0  0  0  0  0  0  0  0  0  0
   -0.9494   -1.9208    0.3753 H   0  0  0  0  0  0  0  0  0  0  0  0
   -2.8429   -0.1773    2.2497 H   0  0  0  0  0  0  0  0  0  0  0  0
   -2.8828   -1.1226   -1.9661 H   0  0  0  0  0  0  0  0  0  0  0  0
   -5.2665    0.1937    2.1848 H   0  0  0  0  0  0  0  0  0  0  0  0
   -5.3124   -0.7479   -2.0189 H   0  0  0  0  0  0  0  0  0  0  0  0
    5.1380   -1.9844   -1.5209 H   0  0  0  0  0  0  0  0  0  0  0  0
    3.7663   -3.1165   -1.2849 H   0  0  0  0  0  0  0  0  0  0  0  0
    5.3279   -3.4215   -0.4929 H   0  0  0  0  0  0  0  0  0  0  0  0
    5.7128    0.1906    1.8087 H   0  0  0  0  0  0  0  0  0  0  0  0
    5.4215    1.9271    1.4645 H   0  0  0  0  0  0  0  0  0  0  0  0
    6.8937    1.1290    0.8691 H   0  0  0  0  0  0  0  0  0  0  0  0
   -7.0976    0.2031    0.9343 H   0  0  0  0  0  0  0  0  0  0  0  0
  1 12  1  0  0  0  0
  1 21  1  0  0  0  0
  2 13  1  0  0  0  0
  2 22  1  0  0  0  0
  3  9  2  0  0  0  0
  4 20  1  0  0  0  0
  4 37  1  0  0  0  0
  5  7  1  0  0  0  0
  5  9  1  0  0  0  0
  5 23  1  0  0  0  0
  6  7  1  0  0  0  0
  6  8  1  0  0  0  0
  6 10  2  0  0  0  0
  7 11  2  0  0  0  0
  8  9  1  0  0  0  0
  8 14  2  3  0  0  0
 10 12  1  0  0  0  0
 10 24  1  0  0  0  0
 11 13  1  0  0  0  0
 11 25  1  0  0  0  0
 12 13  2  0  0  0  0
 14 15  1  0  0  0  0
 14 26  1  0  0  0  0
 15 16  2  0  0  0  0
 15 17  1  0  0  0  0
 16 18  1  0  0  0  0
 16 27  1  0  0  0  0
 17 19  2  0  0  0  0
 17 28  1  0  0  0  0
 18 20  2  0  0  0  0
 18 29  1  0  0  0  0
 19 20  1  0  0  0  0
 19 30  1  0  0  0  0
 21 31  1  0  0  0  0
 21 32  1  0  0  0  0
 21 33  1  0  0  0  0
 22 34  1  0  0  0  0
 22 35  1  0  0  0  0
 22 36  1  0  0  0  0
M  END
> <PUBCHEM_COMPOUND_CID>
907426

> <PUBCHEM_CONFORMER_RMSD>
0.6

> <PUBCHEM_CONFORMER_DIVERSEORDER>
2
1

> <PUBCHEM_MMFF94_PARTIAL_CHARGES>
31
1 -0.36
10 -0.15
11 -0.15
12 0.08
13 0.08
14 -0.18
15 0.03
16 -0.15
17 -0.15
18 -0.15
19 -0.15
2 -0.36
20 0.08
21 0.28
22 0.28
23 0.37
24 0.15
25 0.15
26 0.15
27 0.15
28 0.15
29 0.15
3 -0.57
30 0.15
37 0.45
4 -0.53
5 -0.55
6 0.03
7 0.12
8 -0.01
9 0.62

> <PUBCHEM_EFFECTIVE_ROTOR_COUNT>
3.2

> <PUBCHEM_PHARMACOPHORE_FEATURES>
8
1 1 acceptor
1 2 acceptor
1 3 acceptor
1 4 donor
1 5 donor
5 5 6 7 8 9 rings
6 15 16 17 18 19 20 rings
6 6 7 10 11 12 13 rings

> <PUBCHEM_HEAVY_ATOM_COUNT>
22

> <PUBCHEM_ATOM_DEF_STEREO_COUNT>
0

> <PUBCHEM_ATOM_UDEF_STEREO_COUNT>
0

> <PUBCHEM_BOND_DEF_STEREO_COUNT>
0

> <PUBCHEM_BOND_UDEF_STEREO_COUNT>
1

> <PUBCHEM_ISOTOPIC_ATOM_COUNT>
0

> <PUBCHEM_COMPONENT_COUNT>
1

> <PUBCHEM_CACTVS_TAUTO_COUNT>
4

> <PUBCHEM_CONFORMER_ID>
000DD8A200000002

> <PUBCHEM_MMFF94_ENERGY>
94.3123

> <PUBCHEM_FEATURE_SELFOVERLAP>
40.69

> <PUBCHEM_SHAPE_FINGERPRINT>
10906281 52 18188784967127686616
11089746 13 17846498174884122897
11796584 16 17167863088476993763
12107183 9 17483694307241449618
12236239 1 18060138735128508859
12516196 113 18413106182221761881
12596602 18 17132113580423058338
12670546 56 17917714595187028097
12760667 363 18336264522755051866
13140716 1 18047753986308186584
13533116 47 18060700563562943402
13540713 4 18194387902558186524
13544653 18 18335140886153049188
13583140 156 14836119914708639191
14251764 18 18341899593710680233
14386348 63 17822012033748141027
14739800 52 16773223119561373616
14863182 85 18409736175478745022
15196674 1 18337108969033042852
1813 80 18334588918499667037
19141452 34 18341612654850059199
19489759 90 15841557375315512315
200 152 18342735221978064577
20511986 3 17988910185252150495
20645477 70 18335137587708193870
21033648 29 17749936856731554749
21065198 48 17917718967505745114
21236236 1 18337671911066858309
21267235 1 18336833005142996630
21279426 13 18189048699351703445
21641784 216 17822869605869241716
22182313 1 18261097544483305116
22224240 67 18271516607500499824
23175994 123 17967256408045543661
23402539 116 18341609352236090109
23557571 272 17240471503444107196
23559900 14 18186524332265365850
23569914 152 17183876109747526319
26918003 58 17822010942963591441
2871803 45 18113900429456688338
300161 21 18060698411604609611
3004659 81 17967816020619562662
345986 75 18200024028393384314
34797466 226 16009044877088105879
34934 24 18337949103744598170
4072396 5 18260536853951401432
42630746 31 18410293623346905594
4340502 62 16443057318618564842
465052 167 18341620312550096167
5104073 3 18338229341860373192
59755656 215 18407762530537111214
67856867 119 17630881801847388281
7495541 125 15285645433755594373
9709674 26 18335424552064331522
9971528 1 18411982468321313036

> <PUBCHEM_SHAPE_MULTIPOLES>
424.29
13.82
1.94
0.99
5.24
0.26
0.13
2.64
1.41
-2.68
-0.41
0.62
0.08
0.26

> <PUBCHEM_SHAPE_SELFOVERLAP>
934.149

> <PUBCHEM_SHAPE_VOLUME>
231.3

> <PUBCHEM_COORDINATE_TYPE>
2
5
10

$$$$
53735577
  -OEChem-11282412143D

 41 43  0     0  0  0  0  0  0999 V2000
    6.8170   -1.4906    1.4626 Br  0  0  0  0  0  0  0  0  0  0  0  0
    0.1833    1.4235   -1.1721 O   0  0  0  0  0  0  0  0  0  0  0  0
   -6.4257    2.3151    0.3524 O   0  0  0  0  0  0  0  0  0  0  0  0
   -6.7635    0.1570    0.9762 O   0  0  0  0  0  0  0  0  0  0  0  0
   -0.9787   -1.6756   -1.0686 N   0  0  0  0  0  0  0  0  0  0  0  0
    2.4979    1.8808   -1.0521 N   0  0  0  0  0  0  0  0  0  0  0  0
   -2.7584   -0.9472    0.0422 C   0  0  0  0  0  0  0  0  0  0  0  0
   -1.5964   -0.6103    0.7796 C   0  0  0  0  0  0  0  0  0  0  0  0
   -0.5104   -1.0722    0.0694 C   0  0  0  0  0  0  0  0  0  0  0  0
   -2.3470   -1.6049   -1.0959 C   0  0  0  0  0  0  0  0  0  0  0  0
   -4.1553   -0.6500    0.4206 C   0  0  0  0  0  0  0  0  0  0  0  0
    0.9479   -1.0435    0.2860 C   0  0  0  0  0  0  0  0  0  0  0  0
    1.7780   -0.0752   -0.1062 C   0  0  0  0  0  0  0  0  0  0  0  0
    3.2229    0.0126    0.0761 C   0  0  0  0  0  0  0  0  0  0  0  0
   -4.5868    0.8022    0.1504 C   0  0  0  0  0  0  0  0  0  0  0  0
   -1.5579    0.1035    2.0736 C   0  0  0  0  0  0  0  0  0  0  0  0
   -3.1171   -2.1770   -2.2174 C   0  0  0  0  0  0  0  0  0  0  0  0
    3.6083    1.2186   -0.5166 C   0  0  0  0  0  0  0  0  0  0  0  0
    1.3231    1.1511   -0.8432 C   0  0  0  0  0  0  0  0  0  0  0  0
    4.1588   -0.8116    0.6718 C   0  0  0  0  0  0  0  0  0  0  0  0
    4.9217    1.6449   -0.5393 C   0  0  0  0  0  0  0  0  0  0  0  0
   -6.0302    1.0303    0.5301 C   0  0  0  0  0  0  0  0  0  0  0  0
    5.4954   -0.3989    0.6602 C   0  0  0  0  0  0  0  0  0  0  0  0
    5.8731    0.8174    0.0604 C   0  0  0  0  0  0  0  0  0  0  0  0
   -4.8358   -1.3292   -0.1099 H   0  0  0  0  0  0  0  0  0  0  0  0
   -4.3003   -0.8779    1.4848 H   0  0  0  0  0  0  0  0  0  0  0  0
   -0.4043   -2.1066   -1.7807 H   0  0  0  0  0  0  0  0  0  0  0  0
    1.3436   -1.9062    0.8170 H   0  0  0  0  0  0  0  0  0  0  0  0
   -4.4715    1.0338   -0.9145 H   0  0  0  0  0  0  0  0  0  0  0  0
   -3.9665    1.4943    0.7300 H   0  0  0  0  0  0  0  0  0  0  0  0
   -2.3169   -0.2834    2.7609 H   0  0  0  0  0  0  0  0  0  0  0  0
   -0.5870   -0.0052    2.5678 H   0  0  0  0  0  0  0  0  0  0  0  0
   -1.7400    1.1725    1.9245 H   0  0  0  0  0  0  0  0  0  0  0  0
   -3.8298   -1.4440   -2.6092 H   0  0  0  0  0  0  0  0  0  0  0  0
   -2.4679   -2.4834   -3.0443 H   0  0  0  0  0  0  0  0  0  0  0  0
   -3.6779   -3.0566   -1.8854 H   0  0  0  0  0  0  0  0  0  0  0  0
    2.5542    2.7738   -1.5274 H   0  0  0  0  0  0  0  0  0  0  0  0
    3.8630   -1.7484    1.1330 H   0  0  0  0  0  0  0  0  0  0  0  0
    5.2110    2.5817   -1.0015 H   0  0  0  0  0  0  0  0  0  0  0  0
    6.9151    1.1294    0.0566 H   0  0  0  0  0  0  0  0  0  0  0  0
   -7.3610    2.4501    0.6153 H   0  0  0  0  0  0  0  0  0  0  0  0
  1 23  1  0  0  0  0
  2 19  2  0  0  0  0
  3 22  1  0  0  0  0
  3 41  1  0  0  0  0
  4 22  2  0  0  0  0
  5  9  1  0  0  0  0
  5 10  1  0  0  0  0
  5 27  1  0  0  0  0
  6 18  1  0  0  0  0
  6 19  1  0  0  0  0
  6 37  1  0  0  0  0
  7  8  1  0  0  0  0
  7 10  2  0  0  0  0
  7 11  1  0  0  0  0
  8  9  2  0  0  0  0
  8 16  1  0  0  0  0
  9 12  1  0  0  0  0
 10 17  1  0  0  0  0
 11 15  1  0  0  0  0
 11 25  1  0  0  0  0
 11 26  1  0  0  0  0
 12 13  2  3  0  0  0
 12 28  1  0  0  0  0
 13 14  1  0  0  0  0
 13 19  1  0  0  0  0
 14 18  2  0  0  0  0
 14 20  1  0  0  0  0
 15 22  1  0  0  0  0
 15 29  1  0  0  0  0
 15 30  1  0  0  0  0
 16 31  1  0  0  0  0
 16 32  1  0  0  0  0
 16 33  1  0  0  0  0
 17 34  1  0  0  0  0
 17 35  1  0  0  0  0
 17 36  1  0  0  0  0
 18 21  1  0  0  0  0
 20 23  2  0  0  0  0
 20 38  1  0  0  0  0
 21 24  2  0  0  0  0
 21 39  1  0  0  0  0
 23 24  1  0  0  0  0
 24 40  1  0  0  0  0
M  END
> <PUBCHEM_COMPOUND_CID>
53735577

> <PUBCHEM_CONFORMER_RMSD>
0.8

> <PUBCHEM_CONFORMER_DIVERSEORDER>
3
7
14
15
11
2
13
4
8
10
6
1
12
5
9

> <PUBCHEM_MMFF94_PARTIAL_CHARGES>
31
1 -0.11
10 -0.33
11 0.18
12 -0.11
13 -0.01
14 0.03
15 0.06
16 0.18
17 0.18
18 0.12
19 0.62
2 -0.57
20 -0.15
21 -0.15
22 0.66
23 0.11
24 -0.15
27 0.27
28 0.15
3 -0.65
37 0.37
38 0.15
39 0.15
4 -0.57
40 0.15
41 0.5
5 0.03
6 -0.55
7 -0.18
8 -0.18
9 -0.2

> <PUBCHEM_EFFECTIVE_ROTOR_COUNT>
4.2

> <PUBCHEM_PHARMACOPHORE_FEATURES>
11
1 1 hydrophobe
1 2 acceptor
1 3 acceptor
1 4 acceptor
1 5 cation
1 5 donor
1 6 donor
3 3 4 22 anion
5 5 7 8 9 10 rings
5 6 13 14 18 19 rings
6 14 18 20 21 23 24 rings

> <PUBCHEM_HEAVY_ATOM_COUNT>
24

> <PUBCHEM_ATOM_DEF_STEREO_COUNT>
0

> <PUBCHEM_ATOM_UDEF_STEREO_COUNT>
0

> <PUBCHEM_BOND_DEF_STEREO_COUNT>
0

> <PUBCHEM_BOND_UDEF_STEREO_COUNT>
1

> <PUBCHEM_ISOTOPIC_ATOM_COUNT>
0

> <PUBCHEM_COMPONENT_COUNT>
1

> <PUBCHEM_CACTVS_TAUTO_COUNT>
19

> <PUBCHEM_CONFORMER_ID>
0333F09900000003

> <PUBCHEM_MMFF94_ENERGY>
57.4169

> <PUBCHEM_FEATURE_SELFOVERLAP>
55.966

> <PUBCHEM_SHAPE_FINGERPRINT>
105312 117 17632861919589112367
10906281 52 18041849536290331308
11089746 13 18060411430495662785
12107183 9 18408319960919487050
12236239 1 18412824715697978714
12616971 3 18408316714050837662
13073987 5 18263924517569086714
13167372 99 18408042887967893089
13533116 47 16701750332649929246
13782708 43 15574988489973604826
13785724 45 17975130938346486706
14251764 18 18259987093119976181
14294032 229 17917994967654608925
14617045 38 15140961738581962338
15081414 286 17531242924630906332
15183329 4 18408595972360083470
15238133 3 17749122070911686229
15301273 46 14996282505662999985
20281389 69 18410013247454743417
20511986 3 18272077318995218448
20554085 129 16773506681613055931
20645477 70 17822283622591370634
21054139 6 10231758877026397956
21196832 93 11671192260071839157
21267235 1 17967812705432279034
21774942 28 16844455912380402761
23081809 10 18337947995642984062
23175994 123 17168141269414235078
23402539 116 17489866067908314558
23559900 14 16558489559919577388
268830 7 18187637072308134588
2838139 119 18410288100014065205
3009799 131 16128655241057100153
4325135 7 10879990259596589632
5104073 3 18188204428976895962
5207 217 11311765190147674360
57724786 102 17604155951204578308
59755656 520 17967249814970531955
6913067 236 13830133862761630608
7226269 152 17561367283788598073

> <PUBCHEM_SHAPE_MULTIPOLES>
472.28
16.49
2.04
1.47
1.86
0.24
0.11
3.24
-5.77
0.42
0.68
0.7
-0.5
-2.74

> <PUBCHEM_SHAPE_SELFOVERLAP>
1012.861

> <PUBCHEM_SHAPE_VOLUME>
267.6

> <PUBCHEM_COORDINATE_TYPE>
2
5
10

$$$$
92136143
  -OEChem-11282412143D

 58 65  0     1  0  0  0  0  0999 V2000
   -0.6794   -2.0593    1.8540 O   0  0  0  0  0  0  0  0  0  0  0  0
   -0.6995   -1.8789   -2.2992 O   0  0  0  0  0  0  0  0  0  0  0  0
    4.1477    2.9411   -0.3681 O   0  0  0  0  0  0  0  0  0  0  0  0
   -1.5542   -0.2661    0.7060 N   0  0  0  0  0  0  0  0  0  0  0  0
    1.1357   -1.5448    0.5280 N   0  0  0  0  0  0  0  0  0  0  0  0
   -2.8494   -3.5177   -0.4014 N   0  0  0  0  0  0  0  0  0  0  0  0
   -2.8275   -1.0914   -1.7785 N   0  0  0  0  0  0  0  0  0  0  0  0
    2.2604    4.3240   -0.2897 N   0  0  0  0  0  0  0  0  0  0  0  0
   -1.7893   -1.6733    1.0128 C   0  0  1  0  0  0  0  0  0  0  0  0
   -1.7279   -2.5916   -0.2517 C   0  0  1  0  0  0  0  0  0  0  0  0
    0.3071   -2.6188    1.0102 C   0  0  2  0  0  0  0  0  0  0  0  0
   -0.4391   -3.3878   -0.0600 C   0  0  0  0  0  0  0  0  0  0  0  0
   -0.3695    0.4108    0.5094 C   0  0  0  0  0  0  0  0  0  0  0  0
    0.9143   -0.2019    0.4102 C   0  0  0  0  0  0  0  0  0  0  0  0
   -0.3665    1.8403    0.3177 C   0  0  0  0  0  0  0  0  0  0  0  0
   -2.9819   -1.9312    1.9516 C   0  0  0  0  0  0  0  0  0  0  0  0
    2.0155    0.6990    0.1307 C   0  0  0  0  0  0  0  0  0  0  0  0
   -2.4874    0.7606    0.5072 C   0  0  0  0  0  0  0  0  0  0  0  0
    2.4966   -1.6397    0.2451 C   0  0  0  0  0  0  0  0  0  0  0  0
   -1.6780   -1.8311   -1.5585 C   0  0  0  0  0  0  0  0  0  0  0  0
   -1.8144    2.0153    0.3622 C   0  0  0  0  0  0  0  0  0  0  0  0
    0.7097    2.6996    0.1142 C   0  0  0  0  0  0  0  0  0  0  0  0
    1.9506    2.0855    0.0152 C   0  0  0  0  0  0  0  0  0  0  0  0
    3.0488   -0.3409    0.0239 C   0  0  0  0  0  0  0  0  0  0  0  0
    0.8342    4.1726   -0.0885 C   0  0  0  0  0  0  0  0  0  0  0  0
   -3.8944    0.7169    0.4206 C   0  0  0  0  0  0  0  0  0  0  0  0
    2.9524    3.1180   -0.2380 C   0  0  0  0  0  0  0  0  0  0  0  0
    3.3013   -2.7954    0.1803 C   0  0  0  0  0  0  0  0  0  0  0  0
   -2.5973    3.1892    0.2175 C   0  0  0  0  0  0  0  0  0  0  0  0
    4.4357   -0.2694   -0.2629 C   0  0  0  0  0  0  0  0  0  0  0  0
   -4.6268    1.8974    0.2687 C   0  0  0  0  0  0  0  0  0  0  0  0
   -3.9891    3.1224    0.1831 C   0  0  0  0  0  0  0  0  0  0  0  0
    4.6603   -2.6703   -0.1048 C   0  0  0  0  0  0  0  0  0  0  0  0
    5.2225   -1.4236   -0.3234 C   0  0  0  0  0  0  0  0  0  0  0  0
   -3.0211   -0.2592   -2.9439 C   0  0  0  0  0  0  0  0  0  0  0  0
    0.9330   -3.2813    1.6165 H   0  0  0  0  0  0  0  0  0  0  0  0
    0.1604   -3.5761   -0.9558 H   0  0  0  0  0  0  0  0  0  0  0  0
   -0.6776   -4.3753    0.3608 H   0  0  0  0  0  0  0  0  0  0  0  0
   -3.9504   -1.9022    1.4515 H   0  0  0  0  0  0  0  0  0  0  0  0
   -2.8967   -2.9197    2.4215 H   0  0  0  0  0  0  0  0  0  0  0  0
   -2.9977   -1.2076    2.7757 H   0  0  0  0  0  0  0  0  0  0  0  0
   -2.7196   -4.1078   -1.2221 H   0  0  0  0  0  0  0  0  0  0  0  0
   -3.7301   -3.0243   -0.5245 H   0  0  0  0  0  0  0  0  0  0  0  0
    0.3116    4.5167   -0.9842 H   0  0  0  0  0  0  0  0  0  0  0  0
    0.5357    4.7418    0.7950 H   0  0  0  0  0  0  0  0  0  0  0  0
   -4.4492   -0.2097    0.4853 H   0  0  0  0  0  0  0  0  0  0  0  0
    2.8772   -3.7817    0.3457 H   0  0  0  0  0  0  0  0  0  0  0  0
   -2.1151    4.1576    0.1101 H   0  0  0  0  0  0  0  0  0  0  0  0
   -3.6297   -1.2312   -1.1772 H   0  0  0  0  0  0  0  0  0  0  0  0
    4.9174    0.6842   -0.4475 H   0  0  0  0  0  0  0  0  0  0  0  0
    2.7112    5.2187   -0.4533 H   0  0  0  0  0  0  0  0  0  0  0  0
   -5.7117    1.8501    0.2202 H   0  0  0  0  0  0  0  0  0  0  0  0
   -4.5710    4.0320    0.0661 H   0  0  0  0  0  0  0  0  0  0  0  0
    5.2818   -3.5601   -0.1562 H   0  0  0  0  0  0  0  0  0  0  0  0
    6.2826   -1.3393   -0.5462 H   0  0  0  0  0  0  0  0  0  0  0  0
   -2.0973    0.2789   -3.1715 H   0  0  0  0  0  0  0  0  0  0  0  0
   -3.8306    0.4461   -2.7450 H   0  0  0  0  0  0  0  0  0  0  0  0
   -3.2855   -0.9014   -3.7877 H   0  0  0  0  0  0  0  0  0  0  0  0
  1  9  1  0  0  0  0
  1 11  1  0  0  0  0
  2 20  2  0  0  0  0
  3 27  2  0  0  0  0
  4  9  1  0  0  0  0
  4 13  1  0  0  0  0
  4 18  1  0  0  0  0
  5 11  1  0  0  0  0
  5 14  1  0  0  0  0
  5 19  1  0  0  0  0
  6 10  1  0  0  0  0
  6 42  1  0  0  0  0
  6 43  1  0  0  0  0
  7 20  1  0  0  0  0
  7 35  1  0  0  0  0
  7 49  1  0  0  0  0
  8 25  1  0  0  0  0
  8 27  1  0  0  0  0
  8 51  1  0  0  0  0
  9 10  1  0  0  0  0
  9 16  1  0  0  0  0
 10 12  1  0  0  0  0
 10 20  1  0  0  0  0
 11 12  1  0  0  0  0
 11 36  1  0  0  0  0
 12 37  1  0  0  0  0
 12 38  1  0  0  0  0
 13 14  2  0  0  0  0
 13 15  1  0  0  0  0
 14 17  1  0  0  0  0
 15 21  1  0  0  0  0
 15 22  2  0  0  0  0
 16 39  1  0  0  0  0
 16 40  1  0  0  0  0
 16 41  1  0  0  0  0
 17 23  2  0  0  0  0
 17 24  1  0  0  0  0
 18 21  1  0  0  0  0
 18 26  2  0  0  0  0
 19 24  1  0  0  0  0
 19 28  2  0  0  0  0
 21 29  2  0  0  0  0
 22 23  1  0  0  0  0
 22 25  1  0  0  0  0
 23 27  1  0  0  0  0
 24 30  2  0  0  0  0
 25 44  1  0  0  0  0
 25 45  1  0  0  0  0
 26 31  1  0  0  0  0
 26 46  1  0  0  0  0
 28 33  1  0  0  0  0
 28 47  1  0  0  0  0
 29 32  1  0  0  0  0
 29 48  1  0  0  0  0
 30 34  1  0  0  0  0
 30 50  1  0  0  0  0
 31 32  2  0  0  0  0
 31 52  1  0  0  0  0
 32 53  1  0  0  0  0
 33 34  2  0  0  0  0
 33 54  1  0  0  0  0
 34 55  1  0  0  0  0
 35 56  1  0  0  0  0
 35 57  1  0  0  0  0
 35 58  1  0  0  0  0
M  END
> <PUBCHEM_COMPOUND_CID>
92136143

> <PUBCHEM_CONFORMER_RMSD>
0.8

> <PUBCHEM_CONFORMER_DIVERSEORDER>
1
2

> <PUBCHEM_MMFF94_PARTIAL_CHARGES>
43
1 -0.56
10 0.33
11 0.54
13 -0.05
14 -0.05
15 -0.01
17 -0.01
18 -0.15
19 -0.15
2 -0.57
20 0.57
22 -0.14
23 0.09
25 0.44
26 -0.15
27 0.54
28 -0.15
29 -0.15
3 -0.57
30 -0.15
31 -0.15
32 -0.15
33 -0.15
34 -0.15
35 0.3
4 -0.04
42 0.36
43 0.36
46 0.15
47 0.15
48 0.15
49 0.37
5 -0.04
50 0.15
51 0.37
52 0.15
53 0.15
54 0.15
55 0.15
6 -0.99
7 -0.73
8 -0.73
9 0.54

> <PUBCHEM_EFFECTIVE_ROTOR_COUNT>
3

> <PUBCHEM_PHARMACOPHORE_FEATURES>
17
1 1 acceptor
1 2 acceptor
1 3 acceptor
1 4 cation
1 5 cation
1 6 cation
1 6 donor
1 7 donor
1 8 donor
5 1 9 10 11 12 rings
5 4 13 15 18 21 rings
5 5 14 17 19 24 rings
5 8 22 23 25 27 rings
6 13 14 15 17 22 23 rings
6 18 21 26 29 31 32 rings
6 19 24 28 30 33 34 rings
7 1 4 5 9 11 13 14 rings

> <PUBCHEM_HEAVY_ATOM_COUNT>
35

> <PUBCHEM_ATOM_DEF_STEREO_COUNT>
3

> <PUBCHEM_ATOM_UDEF_STEREO_COUNT>
0

> <PUBCHEM_BOND_DEF_STEREO_COUNT>
0

> <PUBCHEM_BOND_UDEF_STEREO_COUNT>
0

> <PUBCHEM_ISOTOPIC_ATOM_COUNT>
0

> <PUBCHEM_COMPONENT_COUNT>
1

> <PUBCHEM_CACTVS_TAUTO_COUNT>
4

> <PUBCHEM_CONFORMER_ID>
057DE2CF00000001

> <PUBCHEM_MMFF94_ENERGY>
145.1724

> <PUBCHEM_FEATURE_SELFOVERLAP>
88.017

> <PUBCHEM_SHAPE_FINGERPRINT>
10675989 125 18049705606620654813
10906281 52 17907039290774969504
10967382 1 18120378657330629648
1100329 8 18410576150031571160
11513181 2 18272656791935916774
11578080 2 17240749727367633084
12107698 1 18412825776971580135
12553582 1 18264761078630156634
13140716 1 18337124383734160640
14117953 113 17836363752914790788
14790565 3 18122353376162286656
14955137 171 18194132827848359795
15131766 46 16083946934368334566
15274700 242 18047170987553396874
15420108 30 17266938732942788321
15439362 3 18408882936343077524
15664445 248 13729923926429838532
15968369 153 18272085067232453425
18681886 176 18267578009940255497
19319366 153 17678191394962410170
19591789 44 18265336109899716504
20764821 26 18336271244663485656
20775438 99 17552314034032108095
22113638 7 18266737987335673128
23227448 37 18411704253130113879
23558518 356 18335980986256732192
23559900 14 18411982438910748040
238 59 16682553185846131775
25265897 201 17843433763047093574
3027735 51 18052537973715939977
3178227 256 18265349308951500137
3298306 158 18046626703005467997
34934 24 18337110051918696146
350125 39 18335999635010227169
460360 51 17896024585789396504
57527585 103 17242455159806470155
70251023 43 18268982258251601799

> <PUBCHEM_SHAPE_MULTIPOLES>
677.77
7.98
5.55
1.45
4.23
3.23
-0.88
0.56
-0.58
0.66
-0.08
-1.55
-1.2
-0.65

> <PUBCHEM_SHAPE_SELFOVERLAP>
1582.012

> <PUBCHEM_SHAPE_VOLUME>
342

> <PUBCHEM_COORDINATE_TYPE>
2
5
10

$$$$
6398883
  -OEChem-11282412143D

 43 45  0     0  0  0  0  0  0999 V2000
    6.1721   -1.3552   -0.4759 F   0  0  0  0  0  0  0  0  0  0  0  0
    4.6413   -1.5089   -2.0047 F   0  0  0  0  0  0  0  0  0  0  0  0
    5.6146    0.3998   -1.6325 F   0  0  0  0  0  0  0  0  0  0  0  0
   -0.4087    1.5708    2.1640 O   0  0  0  0  0  0  0  0  0  0  0  0
   -2.5300    0.2898   -0.1618 N   0  0  0  0  0  0  0  0  0  0  0  0
    0.7734    1.3352    0.1508 N   0  0  0  0  0  0  0  0  0  0  0  0
   -3.0682   -4.6339    0.2574 N   0  0  0  0  0  0  0  0  0  0  0  0
   -2.4630    1.6946   -0.2968 C   0  0  0  0  0  0  0  0  0  0  0  0
   -1.3917    2.4147    0.2321 C   0  0  0  0  0  0  0  0  0  0  0  0
   -3.6072   -0.4881   -0.6875 C   0  0  0  0  0  0  0  0  0  0  0  0
   -0.3066    1.7483    0.9409 C   0  0  0  0  0  0  0  0  0  0  0  0
   -3.4180   -1.9424   -0.3560 C   0  0  0  0  0  0  0  0  0  0  0  0
    1.9458    0.6493    0.5530 C   0  0  0  0  0  0  0  0  0  0  0  0
   -3.4867    2.3613   -0.9703 C   0  0  0  0  0  0  0  0  0  0  0  0
   -1.3443    3.8013    0.0874 C   0  0  0  0  0  0  0  0  0  0  0  0
    4.0565   -0.3454    0.0016 C   0  0  0  0  0  0  0  0  0  0  0  0
    2.9024    0.3300   -0.3955 C   0  0  0  0  0  0  0  0  0  0  0  0
   -3.4392    3.7478   -1.1150 C   0  0  0  0  0  0  0  0  0  0  0  0
   -2.3680    4.4677   -0.5861 C   0  0  0  0  0  0  0  0  0  0  0  0
    2.1080    0.3134    1.8862 C   0  0  0  0  0  0  0  0  0  0  0  0
    4.2363   -0.6913    1.3410 C   0  0  0  0  0  0  0  0  0  0  0  0
   -3.9428   -2.4513    0.8194 C   0  0  0  0  0  0  0  0  0  0  0  0
   -2.7210   -2.7593   -1.2293 C   0  0  0  0  0  0  0  0  0  0  0  0
    3.2622   -0.3618    2.2832 C   0  0  0  0  0  0  0  0  0  0  0  0
    5.0986   -0.6973   -1.0058 C   0  0  0  0  0  0  0  0  0  0  0  0
   -3.7416   -3.7974    1.0787 C   0  0  0  0  0  0  0  0  0  0  0  0
   -2.5743   -4.0917   -0.8783 C   0  0  0  0  0  0  0  0  0  0  0  0
   -3.6746   -0.3793   -1.7779 H   0  0  0  0  0  0  0  0  0  0  0  0
   -4.5698   -0.1591   -0.2745 H   0  0  0  0  0  0  0  0  0  0  0  0
   -1.7692   -0.1727    0.3231 H   0  0  0  0  0  0  0  0  0  0  0  0
   -4.3394    1.8450   -1.4002 H   0  0  0  0  0  0  0  0  0  0  0  0
   -0.5150    4.3740    0.4951 H   0  0  0  0  0  0  0  0  0  0  0  0
    0.7193    1.5456   -0.8438 H   0  0  0  0  0  0  0  0  0  0  0  0
    2.7630    0.5992   -1.4394 H   0  0  0  0  0  0  0  0  0  0  0  0
   -4.2357    4.2673   -1.6396 H   0  0  0  0  0  0  0  0  0  0  0  0
   -2.3310    5.5473   -0.6989 H   0  0  0  0  0  0  0  0  0  0  0  0
    1.4027    0.5317    2.6739 H   0  0  0  0  0  0  0  0  0  0  0  0
    5.1284   -1.2174    1.6696 H   0  0  0  0  0  0  0  0  0  0  0  0
    3.4034   -0.6319    3.3259 H   0  0  0  0  0  0  0  0  0  0  0  0
   -4.4907   -1.8316    1.5204 H   0  0  0  0  0  0  0  0  0  0  0  0
   -2.2987   -2.3840   -2.1548 H   0  0  0  0  0  0  0  0  0  0  0  0
   -4.1288   -4.2525    1.9843 H   0  0  0  0  0  0  0  0  0  0  0  0
   -2.0370   -4.7798   -1.5226 H   0  0  0  0  0  0  0  0  0  0  0  0
  1 25  1  0  0  0  0
  2 25  1  0  0  0  0
  3 25  1  0  0  0  0
  4 11  2  0  0  0  0
  5  8  1  0  0  0  0
  5 10  1  0  0  0  0
  5 30  1  0  0  0  0
  6 11  1  0  0  0  0
  6 13  1  0  0  0  0
  6 33  1  0  0  0  0
  7 26  2  0  0  0  0
  7 27  1  0  0  0  0
  8  9  1  0  0  0  0
  8 14  2  0  0  0  0
  9 11  1  0  0  0  0
  9 15  2  0  0  0  0
 10 12  1  0  0  0  0
 10 28  1  0  0  0  0
 10 29  1  0  0  0  0
 12 22  2  0  0  0  0
 12 23  1  0  0  0  0
 13 17  1  0  0  0  0
 13 20  2  0  0  0  0
 14 18  1  0  0  0  0
 14 31  1  0  0  0  0
 15 19  1  0  0  0  0
 15 32  1  0  0  0  0
 16 17  2  0  0  0  0
 16 21  1  0  0  0  0
 16 25  1  0  0  0  0
 17 34  1  0  0  0  0
 18 19  2  0  0  0  0
 18 35  1  0  0  0  0
 19 36  1  0  0  0  0
 20 24  1  0  0  0  0
 20 37  1  0  0  0  0
 21 24  2  0  0  0  0
 21 38  1  0  0  0  0
 22 26  1  0  0  0  0
 22 40  1  0  0  0  0
 23 27  2  0  0  0  0
 23 41  1  0  0  0  0
 24 39  1  0  0  0  0
 26 42  1  0  0  0  0
 27 43  1  0  0  0  0
M  END
> <PUBCHEM_COMPOUND_CID>
6398883

> <PUBCHEM_CONFORMER_RMSD>
0.8

> <PUBCHEM_CONFORMER_DIVERSEORDER>
2
90
18
98
28
38
71
63
81
39
11
45
51
91
26
25
66
72
49
99
79
56
47
64
67
6
93
95
94
96
101
40
77
92
87
88
30
44
46
74
3
15
33
84
48
59
22
82
100
32
29
31
80
73
69
41
78
27
7
24
61
19
13
75
54
17
10
65
37
97
4
83
1
36
20
5
42
86
85
8
50
14
70
9
35
57
58
68
53
62
16
23
34
89
76
21
43
12
60
52
55

> <PUBCHEM_MMFF94_PARTIAL_CHARGES>
41
1 -0.34
10 0.51
11 0.54
12 -0.14
13 0.12
14 -0.15
15 -0.15
16 -0.14
17 -0.15
18 -0.15
19 -0.15
2 -0.34
20 -0.15
21 -0.15
22 -0.15
23 -0.15
24 -0.15
25 1.16
26 0.16
27 0.16
3 -0.34
30 0.4
31 0.15
32 0.15
33 0.37
34 0.15
35 0.15
36 0.15
37 0.15
38 0.15
39 0.15
4 -0.57
40 0.15
41 0.15
42 0.15
43 0.15
5 -0.87
6 -0.55
7 -0.62
8 0.1
9 0.09

> <PUBCHEM_EFFECTIVE_ROTOR_COUNT>
7

> <PUBCHEM_PHARMACOPHORE_FEATURES>
8
1 4 acceptor
1 5 cation
1 5 donor
1 6 donor
1 7 acceptor
6 13 16 17 20 21 24 rings
6 7 12 22 23 26 27 rings
6 8 9 14 15 18 19 rings

> <PUBCHEM_HEAVY_ATOM_COUNT>
27

> <PUBCHEM_ATOM_DEF_STEREO_COUNT>
0

> <PUBCHEM_ATOM_UDEF_STEREO_COUNT>
0

> <PUBCHEM_BOND_DEF_STEREO_COUNT>
0

> <PUBCHEM_BOND_UDEF_STEREO_COUNT>
0

> <PUBCHEM_ISOTOPIC_ATOM_COUNT>
0

> <PUBCHEM_COMPONENT_COUNT>
1

> <PUBCHEM_CACTVS_TAUTO_COUNT>
5

> <PUBCHEM_CONFORMER_ID>
0061A3A300000002

> <PUBCHEM_MMFF94_ENERGY>
87.4614

> <PUBCHEM_FEATURE_SELFOVERLAP>
40.596

> <PUBCHEM_SHAPE_FINGERPRINT>
10462674 296 17552629666794676678
107951 10 18125718989971022429
10928967 22 18191864741467071315
11049842 53 17041461831647113752
11056379 131 18410293571053209908
11069576 57 16903262574875361415
11488393 25 17324373285765432849
11621639 254 17754493280319896308
12107183 9 18122638408236997779
12553582 1 18265041600150852251
12788726 201 18187363242278343539
12990986 174 18265317568594192363
13257819 37 18117265975032056093
13690498 29 18335991934197038660
13785724 45 18049166863372523531
13941206 138 18049441435887747101
14114206 34 18115289194336976295
14251757 5 18410011014018670485
14950920 106 14836121117157447110
15064981 113 17613136495981918804
15320294 125 17681245816298977082
15463212 79 18041836186561745793
15484559 13 13634451317587531164
16090146 7 18053960454216628305
17909252 39 18196665205550130024
18603816 31 17826496779266324010
19958102 18 18192419780058149477
20505436 4 17606127182137240432
20775530 9 18193553595890612655
22849339 104 18338796719634802477
23366157 5 16895950242788087505
23379529 103 18340773753084280950
23466295 7 18412553127930811537
23559900 14 18129648709101337744
24771750 20 17042880189247781365
249999 5 17259055196275858705
3117164 225 9943265696627252716
3737641 26 18049727613700808953
4015057 19 16915349196423995233
4058900 60 17691974760937980781
4371632 12 7817838822826038626
44426695 248 17977984253136167385
5080951 261 18411983525067943690
508706 21 18342736308267739663
56633871 153 18056767756995668551
57307002 85 17846502482831136948
613672 6 18051106375596918015
6898599 12 18260549991592650956

> <PUBCHEM_SHAPE_MULTIPOLES>
513.01
11.28
6.15
1.71
16.89
0.55
-0.4
7.11
3.63
-12.39
0.9
1.84
0.38
1.55

> <PUBCHEM_SHAPE_SELFOVERLAP>
1116.334

> <PUBCHEM_SHAPE_VOLUME>
279.1

> <PUBCHEM_COORDINATE_TYPE>
2
5
10

$$$$
67259771
  -OEChem-11282412143D

 78 84  0     0  0  0  0  0  0999 V2000
    6.1297    1.8526    0.7511 O   0  0  0  0  0  0  0  0  0  0  0  0
   -0.2874    3.2462    0.7626 O   0  0  0  0  0  0  0  0  0  0  0  0
   -5.2820   -0.4662   -1.4800 N   0  0  0  0  0  0  0  0  0  0  0  0
   -5.9415    0.3183   -0.6116 N   0  0  0  0  0  0  0  0  0  0  0  0
    8.7190   -0.7473    0.4109 N   0  0  0  0  0  0  0  0  0  0  0  0
   -1.4868    1.6525   -0.4733 N   0  0  0  0  0  0  0  0  0  0  0  0
   10.0692   -3.3020    0.5032 N   0  0  0  0  0  0  0  0  0  0  0  0
   -7.6325   -2.2695   -0.1526 N   0  0  0  0  0  0  0  0  0  0  0  0
    2.1630    1.9815   -0.1974 N   0  0  0  0  0  0  0  0  0  0  0  0
    2.3927    1.1297   -2.2528 N   0  0  0  0  0  0  0  0  0  0  0  0
   -2.8871   -0.6458   -2.2132 C   0  0  0  0  0  0  0  0  0  0  0  0
   -2.0552   -1.7317   -1.5964 C   0  0  0  0  0  0  0  0  0  0  0  0
   -3.0262   -2.0612   -2.6921 C   0  0  0  0  0  0  0  0  0  0  0  0
   -4.0222   -0.0337   -1.3905 C   0  0  0  0  0  0  0  0  0  0  0  0
   -3.8705    1.0244   -0.4686 C   0  0  0  0  0  0  0  0  0  0  0  0
   -5.1517    1.2346    0.0287 C   0  0  0  0  0  0  0  0  0  0  0  0
   -2.8117    1.8206   -0.0012 C   0  0  0  0  0  0  0  0  0  0  0  0
   -7.3639    0.1340   -0.4374 C   0  0  0  0  0  0  0  0  0  0  0  0
   -5.4476    2.2104    0.9830 C   0  0  0  0  0  0  0  0  0  0  0  0
   -3.0871    2.8051    0.9561 C   0  0  0  0  0  0  0  0  0  0  0  0
   -4.3833    2.9950    1.4387 C   0  0  0  0  0  0  0  0  0  0  0  0
    7.9671   -2.0033    0.5196 C   0  0  0  0  0  0  0  0  0  0  0  0
   10.0426   -0.8876    1.0300 C   0  0  0  0  0  0  0  0  0  0  0  0
    8.7451   -3.1611   -0.1150 C   0  0  0  0  0  0  0  0  0  0  0  0
   10.8212   -2.0459    0.3967 C   0  0  0  0  0  0  0  0  0  0  0  0
   -7.7115   -1.0514    0.4284 C   0  0  0  0  0  0  0  0  0  0  0  0
    7.9769    0.3563    1.0170 C   0  0  0  0  0  0  0  0  0  0  0  0
   -0.3073    2.3358   -0.1001 C   0  0  0  0  0  0  0  0  0  0  0  0
   10.8113   -4.4047   -0.1047 C   0  0  0  0  0  0  0  0  0  0  0  0
    6.8323    0.7922    0.1163 C   0  0  0  0  0  0  0  0  0  0  0  0
   -8.0860   -0.8432    1.7461 C   0  0  0  0  0  0  0  0  0  0  0  0
    0.9039    1.9267   -0.7379 C   0  0  0  0  0  0  0  0  0  0  0  0
    3.0372    1.4841   -1.1596 C   0  0  0  0  0  0  0  0  0  0  0  0
   -7.9444   -3.3284    0.6280 C   0  0  0  0  0  0  0  0  0  0  0  0
   -8.3993   -1.9571    2.5172 C   0  0  0  0  0  0  0  0  0  0  0  0
    4.8229    1.8762    0.3923 C   0  0  0  0  0  0  0  0  0  0  0  0
    1.0726    1.4016   -1.9974 C   0  0  0  0  0  0  0  0  0  0  0  0
    4.4213    1.4426   -0.8186 C   0  0  0  0  0  0  0  0  0  0  0  0
    2.5702    2.4311    1.0553 C   0  0  0  0  0  0  0  0  0  0  0  0
   -8.3295   -3.2269    1.9549 C   0  0  0  0  0  0  0  0  0  0  0  0
    3.8749    2.3909    1.3727 C   0  0  0  0  0  0  0  0  0  0  0  0
   -7.8584   -4.6755   -0.0083 C   0  0  0  0  0  0  0  0  0  0  0  0
   -2.4002    0.0364   -2.9024 H   0  0  0  0  0  0  0  0  0  0  0  0
   -2.2928   -2.0693   -0.5949 H   0  0  0  0  0  0  0  0  0  0  0  0
   -0.9985   -1.7517   -1.8343 H   0  0  0  0  0  0  0  0  0  0  0  0
   -2.6194   -2.3053   -3.6665 H   0  0  0  0  0  0  0  0  0  0  0  0
   -3.8991   -2.6427   -2.4223 H   0  0  0  0  0  0  0  0  0  0  0  0
   -7.8015    1.0580   -0.0449 H   0  0  0  0  0  0  0  0  0  0  0  0
   -7.7974   -0.0069   -1.4358 H   0  0  0  0  0  0  0  0  0  0  0  0
   -6.4510    2.3622    1.3641 H   0  0  0  0  0  0  0  0  0  0  0  0
   -2.3412    3.4686    1.3707 H   0  0  0  0  0  0  0  0  0  0  0  0
   -4.5713    3.7664    2.1815 H   0  0  0  0  0  0  0  0  0  0  0  0
    7.7490   -2.2405    1.5700 H   0  0  0  0  0  0  0  0  0  0  0  0
    7.0089   -1.9452   -0.0054 H   0  0  0  0  0  0  0  0  0  0  0  0
   10.6217    0.0324    0.8842 H   0  0  0  0  0  0  0  0  0  0  0  0
    9.9524   -1.0497    2.1128 H   0  0  0  0  0  0  0  0  0  0  0  0
   -1.3718    0.9187   -1.1630 H   0  0  0  0  0  0  0  0  0  0  0  0
    8.1698   -4.0837    0.0296 H   0  0  0  0  0  0  0  0  0  0  0  0
    8.8335   -2.9973   -1.1978 H   0  0  0  0  0  0  0  0  0  0  0  0
   11.0436   -1.8104   -0.6531 H   0  0  0  0  0  0  0  0  0  0  0  0
   11.7805   -2.1429    0.9194 H   0  0  0  0  0  0  0  0  0  0  0  0
    8.6312    1.2284    1.1521 H   0  0  0  0  0  0  0  0  0  0  0  0
    7.6105    0.1071    2.0219 H   0  0  0  0  0  0  0  0  0  0  0  0
   10.2670   -5.3477    0.0174 H   0  0  0  0  0  0  0  0  0  0  0  0
   11.7801   -4.5348    0.3901 H   0  0  0  0  0  0  0  0  0  0  0  0
   10.9892   -4.2453   -1.1744 H   0  0  0  0  0  0  0  0  0  0  0  0
    6.1813   -0.0745   -0.0424 H   0  0  0  0  0  0  0  0  0  0  0  0
    7.2285    1.1413   -0.8459 H   0  0  0  0  0  0  0  0  0  0  0  0
   -8.1361    0.1509    2.1771 H   0  0  0  0  0  0  0  0  0  0  0  0
   -8.6967   -1.8358    3.5544 H   0  0  0  0  0  0  0  0  0  0  0  0
    0.3161    1.2049   -2.7441 H   0  0  0  0  0  0  0  0  0  0  0  0
    5.0922    1.0897   -1.5929 H   0  0  0  0  0  0  0  0  0  0  0  0
    1.8333    2.7935    1.7587 H   0  0  0  0  0  0  0  0  0  0  0  0
   -8.5714   -4.1033    2.5466 H   0  0  0  0  0  0  0  0  0  0  0  0
    4.2353    2.7251    2.3384 H   0  0  0  0  0  0  0  0  0  0  0  0
   -8.8353   -5.1690    0.0114 H   0  0  0  0  0  0  0  0  0  0  0  0
   -7.5406   -4.5973   -1.0533 H   0  0  0  0  0  0  0  0  0  0  0  0
   -7.1308   -5.3001    0.5196 H   0  0  0  0  0  0  0  0  0  0  0  0
  1 30  1  0  0  0  0
  1 36  1  0  0  0  0
  2 28  2  0  0  0  0
  3  4  1  0  0  0  0
  3 14  2  0  0  0  0
  4 16  1  0  0  0  0
  4 18  1  0  0  0  0
  5 22  1  0  0  0  0
  5 23  1  0  0  0  0
  5 27  1  0  0  0  0
  6 17  1  0  0  0  0
  6 28  1  0  0  0  0
  6 57  1  0  0  0  0
  7 24  1  0  0  0  0
  7 25  1  0  0  0  0
  7 29  1  0  0  0  0
  8 26  1  0  0  0  0
  8 34  2  0  0  0  0
  9 32  1  0  0  0  0
  9 33  1  0  0  0  0
  9 39  1  0  0  0  0
 10 33  2  0  0  0  0
 10 37  1  0  0  0  0
 11 12  1  0  0  0  0
 11 13  1  0  0  0  0
 11 14  1  0  0  0  0
 11 43  1  0  0  0  0
 12 13  1  0  0  0  0
 12 44  1  0  0  0  0
 12 45  1  0  0  0  0
 13 46  1  0  0  0  0
 13 47  1  0  0  0  0
 14 15  1  0  0  0  0
 15 16  1  0  0  0  0
 15 17  2  0  0  0  0
 16 19  2  0  0  0  0
 17 20  1  0  0  0  0
 18 26  1  0  0  0  0
 18 48  1  0  0  0  0
 18 49  1  0  0  0  0
 19 21  1  0  0  0  0
 19 50  1  0  0  0  0
 20 21  2  0  0  0  0
 20 51  1  0  0  0  0
 21 52  1  0  0  0  0
 22 24  1  0  0  0  0
 22 53  1  0  0  0  0
 22 54  1  0  0  0  0
 23 25  1  0  0  0  0
 23 55  1  0  0  0  0
 23 56  1  0  0  0  0
 24 58  1  0  0  0  0
 24 59  1  0  0  0  0
 25 60  1  0  0  0  0
 25 61  1  0  0  0  0
 26 31  2  0  0  0  0
 27 30  1  0  0  0  0
 27 62  1  0  0  0  0
 27 63  1  0  0  0  0
 28 32  1  0  0  0  0
 29 64  1  0  0  0  0
 29 65  1  0  0  0  0
 29 66  1  0  0  0  0
 30 67  1  0  0  0  0
 30 68  1  0  0  0  0
 31 35  1  0  0  0  0
 31 69  1  0  0  0  0
 32 37  2  0  0  0  0
 33 38  1  0  0  0  0
 34 40  1  0  0  0  0
 34 42  1  0  0  0  0
 35 40  2  0  0  0  0
 35 70  1  0  0  0  0
 36 38  2  0  0  0  0
 36 41  1  0  0  0  0
 37 71  1  0  0  0  0
 38 72  1  0  0  0  0
 39 41  2  0  0  0  0
 39 73  1  0  0  0  0
 40 74  1  0  0  0  0
 41 75  1  0  0  0  0
 42 76  1  0  0  0  0
 42 77  1  0  0  0  0
 42 78  1  0  0  0  0
M  END
> <PUBCHEM_COMPOUND_CID>
67259771

> <PUBCHEM_CONFORMER_RMSD>
1.4

> <PUBCHEM_CONFORMER_DIVERSEORDER>
1
56
16
3
79
10
46
29
49
66
77
76
41
25
64
11
80
40
61
65
71
60
45
31
78
81
24
43
27
62
44
67
37
22
84
58
48
52
63
42
23
26
30
74
57
32
83
55
47
73
72
19
70
2
59
68
50
34
51
38
12
14
33
54
17
20
28
21
75
69
15
5
8
18
36
39
6
82
7
35
9
4
13
53

> <PUBCHEM_MMFF94_PARTIAL_CHARGES>
57
1 -0.36
10 -0.57
11 -0.01
12 -0.2
13 -0.2
14 0.2
16 -0.15
17 0.12
18 0.4
19 -0.15
2 -0.57
20 -0.15
21 -0.15
22 0.27
23 0.27
24 0.27
25 0.27
26 0.17
27 0.27
28 0.71
29 0.27
3 -0.71
30 0.28
31 -0.15
32 -0.24
33 0.14
34 0.17
35 -0.15
36 0.08
37 0.08
38 -0.11
39 -0.18
4 0.31
40 -0.15
41 -0.15
42 0.14
43 0.1
44 0.1
45 0.1
46 0.1
47 0.1
5 -0.81
50 0.15
51 0.15
52 0.15
57 0.37
6 -0.55
69 0.15
7 -0.81
70 0.15
71 0.15
72 0.15
73 0.15
74 0.15
75 0.15
8 -0.62
9 0.33

> <PUBCHEM_EFFECTIVE_ROTOR_COUNT>
11.8

> <PUBCHEM_PHARMACOPHORE_FEATURES>
14
1 1 acceptor
1 2 acceptor
1 3 acceptor
1 5 cation
1 6 donor
1 7 cation
1 8 acceptor
3 9 10 33 cation
5 3 4 14 15 16 rings
5 9 10 32 33 37 rings
6 15 16 17 19 20 21 rings
6 5 7 22 23 24 25 rings
6 8 26 31 34 35 40 rings
6 9 33 36 38 39 41 rings

> <PUBCHEM_HEAVY_ATOM_COUNT>
42

> <PUBCHEM_ATOM_DEF_STEREO_COUNT>
0

> <PUBCHEM_ATOM_UDEF_STEREO_COUNT>
0

> <PUBCHEM_BOND_DEF_STEREO_COUNT>
0

> <PUBCHEM_BOND_UDEF_STEREO_COUNT>
0

> <PUBCHEM_ISOTOPIC_ATOM_COUNT>
0

> <PUBCHEM_COMPONENT_COUNT>
1

> <PUBCHEM_CACTVS_TAUTO_COUNT>
6

> <PUBCHEM_CONFORMER_ID>
04024D7B00000001

> <PUBCHEM_MMFF94_ENERGY>
106.461

> <PUBCHEM_FEATURE_SELFOVERLAP>
71.258

> <PUBCHEM_SHAPE_FINGERPRINT>
10029044 110 11239995651377625930
10258705 36 18336544911854239654
10280341 67 10159693595403088466
11456790 92 17346602997138910096
11607047 74 17897171428469407084
11621639 179 8142079846050587614
11672396 43 18260553350393342465
12013929 27 18114180891042598757
13383668 90 17167854276195865895
13553643 46 11455593372358403242
15604295 49 10231757781630467731
15776043 110 18341608188279431910
16728433 281 10953997288257317439
2026 5 18260267426052546778
20982279 24 18260557714096427154
212700 22 18335693941071844658
21792938 703 17968104135641899066
23569917 315 18260837015614210979
23576562 1 14201979989255776728
3383291 50 18199755907245625247
4616759 239 16128654141471697240
54039377 194 18334012787491943950
5937810 71 9799692575988235681

> <PUBCHEM_SHAPE_MULTIPOLES>
812.75
38.91
5.22
1.97
70.78
4.59
0.54
53.16
-17.75
0.63
-1.43
-3.18
0.45
0.76

> <PUBCHEM_SHAPE_SELFOVERLAP>
1776.347

> <PUBCHEM_SHAPE_VOLUME>
442.9

> <PUBCHEM_COORDINATE_TYPE>
2
5
10

$$$$
71312003
  -OEChem-11282412143D

 59 62  0     0  0  0  0  0  0999 V2000
   -0.6626    5.3242   -0.9910 O   0  0  0  0  0  0  0  0  0  0  0  0
   -4.4719   -4.8082   -0.7483 O   0  0  0  0  0  0  0  0  0  0  0  0
   -6.4112   -3.6888   -0.3652 O   0  0  0  0  0  0  0  0  0  0  0  0
    7.0002   -0.2084    0.7689 O   0  0  0  0  0  0  0  0  0  0  0  0
    4.3773   -4.0078   -0.4422 O   0  0  0  0  0  0  0  0  0  0  0  0
   -3.3532    1.6132    1.5163 N   0  0  0  0  0  0  0  0  0  0  0  0
    1.1232    3.7888   -0.8071 N   0  0  0  0  0  0  0  0  0  0  0  0
   -4.3753   -0.0355    0.4352 C   0  0  0  0  0  0  0  0  0  0  0  0
   -3.7394    0.8018   -0.5146 C   0  0  0  0  0  0  0  0  0  0  0  0
   -3.1147    1.8129    0.1815 C   0  0  0  0  0  0  0  0  0  0  0  0
   -4.1199    0.4897    1.6827 C   0  0  0  0  0  0  0  0  0  0  0  0
   -5.1670   -1.2487    0.1455 C   0  0  0  0  0  0  0  0  0  0  0  0
   -0.9766    2.9932   -0.3638 C   0  0  0  0  0  0  0  0  0  0  0  0
   -0.0300    1.8959   -0.1944 C   0  0  0  0  0  0  0  0  0  0  0  0
   -2.3017    2.9798   -0.2080 C   0  0  0  0  0  0  0  0  0  0  0  0
    1.2294    2.4333   -0.4757 C   0  0  0  0  0  0  0  0  0  0  0  0
   -3.7474    0.6234   -1.9820 C   0  0  0  0  0  0  0  0  0  0  0  0
   -4.3202   -2.4958   -0.1644 C   0  0  0  0  0  0  0  0  0  0  0  0
   -0.2068    4.2189   -0.7631 C   0  0  0  0  0  0  0  0  0  0  0  0
   -4.5257    0.0367    3.0273 C   0  0  0  0  0  0  0  0  0  0  0  0
    2.3849    1.6792   -0.4176 C   0  0  0  0  0  0  0  0  0  0  0  0
   -0.1671    0.5666    0.1583 C   0  0  0  0  0  0  0  0  0  0  0  0
    2.2545    0.3353   -0.0622 C   0  0  0  0  0  0  0  0  0  0  0  0
    0.9909   -0.2158    0.2230 C   0  0  0  0  0  0  0  0  0  0  0  0
    3.4323   -0.5028    0.0151 C   0  0  0  0  0  0  0  0  0  0  0  0
   -5.1881   -3.7043   -0.4206 C   0  0  0  0  0  0  0  0  0  0  0  0
    3.3358   -1.8680   -0.2542 C   0  0  0  0  0  0  0  0  0  0  0  0
    4.6637    0.0550    0.3589 C   0  0  0  0  0  0  0  0  0  0  0  0
    5.7985   -0.7525    0.4335 C   0  0  0  0  0  0  0  0  0  0  0  0
    4.4707   -2.6754   -0.1796 C   0  0  0  0  0  0  0  0  0  0  0  0
    5.7021   -2.1177    0.1643 C   0  0  0  0  0  0  0  0  0  0  0  0
    7.0271    1.1940    1.0313 C   0  0  0  0  0  0  0  0  0  0  0  0
    3.0880   -4.5122   -0.7877 C   0  0  0  0  0  0  0  0  0  0  0  0
   -5.8407   -1.0505   -0.6987 H   0  0  0  0  0  0  0  0  0  0  0  0
   -5.8309   -1.4693    0.9920 H   0  0  0  0  0  0  0  0  0  0  0  0
   -3.0147    2.2025    2.2653 H   0  0  0  0  0  0  0  0  0  0  0  0
   -2.8692    3.8925   -0.3748 H   0  0  0  0  0  0  0  0  0  0  0  0
   -4.7489    0.3701   -2.3438 H   0  0  0  0  0  0  0  0  0  0  0  0
   -3.4348    1.5343   -2.5028 H   0  0  0  0  0  0  0  0  0  0  0  0
   -3.0623   -0.1797   -2.2718 H   0  0  0  0  0  0  0  0  0  0  0  0
   -3.6616   -2.7195    0.6825 H   0  0  0  0  0  0  0  0  0  0  0  0
   -3.7035   -2.3220   -1.0528 H   0  0  0  0  0  0  0  0  0  0  0  0
   -4.2933   -1.0246    3.1628 H   0  0  0  0  0  0  0  0  0  0  0  0
   -4.0112    0.5926    3.8180 H   0  0  0  0  0  0  0  0  0  0  0  0
   -5.6031    0.1721    3.1662 H   0  0  0  0  0  0  0  0  0  0  0  0
    1.9176    4.3705   -1.0461 H   0  0  0  0  0  0  0  0  0  0  0  0
    3.3304    2.1421   -0.6780 H   0  0  0  0  0  0  0  0  0  0  0  0
   -1.1146    0.1049    0.3952 H   0  0  0  0  0  0  0  0  0  0  0  0
    0.8669   -1.2487    0.5392 H   0  0  0  0  0  0  0  0  0  0  0  0
    2.3792   -2.2721   -0.5622 H   0  0  0  0  0  0  0  0  0  0  0  0
    4.7073    1.1091    0.6046 H   0  0  0  0  0  0  0  0  0  0  0  0
    6.5866   -2.7470    0.2224 H   0  0  0  0  0  0  0  0  0  0  0  0
   -5.0500   -5.5809   -0.9242 H   0  0  0  0  0  0  0  0  0  0  0  0
    6.7489    1.7765    0.1463 H   0  0  0  0  0  0  0  0  0  0  0  0
    6.4238    1.4515    1.9084 H   0  0  0  0  0  0  0  0  0  0  0  0
    8.0629    1.4565    1.2708 H   0  0  0  0  0  0  0  0  0  0  0  0
    2.3718   -4.3871    0.0317 H   0  0  0  0  0  0  0  0  0  0  0  0
    2.7264   -4.0836   -1.7286 H   0  0  0  0  0  0  0  0  0  0  0  0
    3.1974   -5.5894   -0.9514 H   0  0  0  0  0  0  0  0  0  0  0  0
  1 19  2  0  0  0  0
  2 26  1  0  0  0  0
  2 53  1  0  0  0  0
  3 26  2  0  0  0  0
  4 29  1  0  0  0  0
  4 32  1  0  0  0  0
  5 30  1  0  0  0  0
  5 33  1  0  0  0  0
  6 10  1  0  0  0  0
  6 11  1  0  0  0  0
  6 36  1  0  0  0  0
  7 16  1  0  0  0  0
  7 19  1  0  0  0  0
  7 46  1  0  0  0  0
  8  9  1  0  0  0  0
  8 11  2  0  0  0  0
  8 12  1  0  0  0  0
  9 10  2  0  0  0  0
  9 17  1  0  0  0  0
 10 15  1  0  0  0  0
 11 20  1  0  0  0  0
 12 18  1  0  0  0  0
 12 34  1  0  0  0  0
 12 35  1  0  0  0  0
 13 14  1  0  0  0  0
 13 15  2  0  0  0  0
 13 19  1  0  0  0  0
 14 16  2  0  0  0  0
 14 22  1  0  0  0  0
 15 37  1  0  0  0  0
 16 21  1  0  0  0  0
 17 38  1  0  0  0  0
 17 39  1  0  0  0  0
 17 40  1  0  0  0  0
 18 26  1  0  0  0  0
 18 41  1  0  0  0  0
 18 42  1  0  0  0  0
 20 43  1  0  0  0  0
 20 44  1  0  0  0  0
 20 45  1  0  0  0  0
 21 23  2  0  0  0  0
 21 47  1  0  0  0  0
 22 24  2  0  0  0  0
 22 48  1  0  0  0  0
 23 24  1  0  0  0  0
 23 25  1  0  0  0  0
 24 49  1  0  0  0  0
 25 27  2  0  0  0  0
 25 28  1  0  0  0  0
 27 30  1  0  0  0  0
 27 50  1  0  0  0  0
 28 29  2  0  0  0  0
 28 51  1  0  0  0  0
 29 31  1  0  0  0  0
 30 31  2  0  0  0  0
 31 52  1  0  0  0  0
 32 54  1  0  0  0  0
 32 55  1  0  0  0  0
 32 56  1  0  0  0  0
 33 57  1  0  0  0  0
 33 58  1  0  0  0  0
 33 59  1  0  0  0  0
M  END
> <PUBCHEM_COMPOUND_CID>
71312003

> <PUBCHEM_CONFORMER_RMSD>
1

> <PUBCHEM_CONFORMER_DIVERSEORDER>
3
6
12
13
19
7
18
14
16
17
20
10
5
4
15
1
11
8
9
2

> <PUBCHEM_MMFF94_PARTIAL_CHARGES>
41
1 -0.57
10 -0.2
11 -0.33
12 0.18
13 -0.01
14 0.03
15 -0.11
16 0.12
17 0.18
18 0.06
19 0.62
2 -0.65
20 0.18
21 -0.15
22 -0.15
24 -0.15
26 0.66
27 -0.15
28 -0.15
29 0.08
3 -0.57
30 0.08
31 -0.15
32 0.28
33 0.28
36 0.27
37 0.15
4 -0.36
46 0.37
47 0.15
48 0.15
49 0.15
5 -0.36
50 0.15
51 0.15
52 0.15
53 0.5
6 0.03
7 -0.55
8 -0.18
9 -0.18

> <PUBCHEM_EFFECTIVE_ROTOR_COUNT>
7.2

> <PUBCHEM_PHARMACOPHORE_FEATURES>
13
1 1 acceptor
1 2 acceptor
1 3 acceptor
1 4 acceptor
1 5 acceptor
1 6 cation
1 6 donor
1 7 donor
3 2 3 26 anion
5 6 8 9 10 11 rings
5 7 13 14 16 19 rings
6 14 16 21 22 23 24 rings
6 25 27 28 29 30 31 rings

> <PUBCHEM_HEAVY_ATOM_COUNT>
33

> <PUBCHEM_ATOM_DEF_STEREO_COUNT>
0

> <PUBCHEM_ATOM_UDEF_STEREO_COUNT>
0

> <PUBCHEM_BOND_DEF_STEREO_COUNT>
1

> <PUBCHEM_BOND_UDEF_STEREO_COUNT>
0

> <PUBCHEM_ISOTOPIC_ATOM_COUNT>
0

> <PUBCHEM_COMPONENT_COUNT>
1

> <PUBCHEM_CACTVS_TAUTO_COUNT>
19

> <PUBCHEM_CONFORMER_ID>
0440228300000003

> <PUBCHEM_MMFF94_ENERGY>
113.5424

> <PUBCHEM_FEATURE_SELFOVERLAP>
66.119

> <PUBCHEM_SHAPE_FINGERPRINT>
10622 236 18127967723563537207
10928967 22 18265638510104649831
11963148 33 18335697214074840090
12107183 9 18340501010794084673
12120059 20 18265351666867017110
12422481 6 17914344476078340141
13782708 43 18195245517380435290
14117953 113 18412263896913116645
14429380 30 18263083365356776003
14950920 106 17704076200639959049
15320467 1 18338797947843533543
15361156 5 18044115487594047206
15911013 46 18272086115320492457
17492 89 18266176326431330575
18608769 82 18339362956029580094
19315092 285 17702387436689622945
19319366 153 17261593388597541485
20028762 73 17909273824814817781
21133410 52 17982163732665816406
4073 2 18046911468644337632
4461854 278 17986682660737165070
5104073 3 18050002191587985248
56633871 153 18339935835672960051
6058803 2 18052562112472023409
613672 6 18187087221693866352
6431902 208 18409445860625759014
70251023 43 18263082292274049177
7970288 3 18410573998437572199

> <PUBCHEM_SHAPE_MULTIPOLES>
639.82
15.98
6.48
1.37
10.55
1.97
-0.81
15.4
-3.94
-3.51
3.06
-2.04
-0.29
-0.14

> <PUBCHEM_SHAPE_SELFOVERLAP>
1401.668

> <PUBCHEM_SHAPE_VOLUME>
350.7

> <PUBCHEM_COORDINATE_TYPE>
2
5
10

$$$$
